
     RDKit          3D

 48 52  0  0  0  0  0  0  0  0999 V2000
  139.9670   74.9600  222.2980 O   0  0  0  0  0  0  0  0  0  0  0  0
  139.6030   76.3440  221.8380 S   0  0  0  0  0  0  0  0  0  0  0  0
  138.9660   76.2600  220.4780 O   0  0  0  0  0  0  0  0  0  0  0  0
  138.4540   77.0600  223.0020 C   0  0  0  0  0  0  0  0  0  0  0  0
  138.2860   78.5300  222.7390 C   0  0  0  0  0  0  0  0  0  0  0  0
  137.7990   78.9770  221.4990 C   0  0  0  0  0  0  0  0  0  0  0  0
  137.6200   80.3450  221.2660 C   0  0  0  0  0  0  0  0  0  0  0  0
  137.9150   81.2710  222.2710 C   0  0  0  0  0  0  0  0  0  0  0  0
  138.3860   80.8320  223.5110 C   0  0  0  0  0  0  0  0  0  0  0  0
  138.5690   79.4670  223.7470 C   0  0  0  0  0  0  0  0  0  0  0  0
  141.0420   77.3290  221.7680 N   0  0  0  0  0  0  0  0  0  0  0  0
  141.4230   77.8340  223.1080 C   0  0  0  0  0  0  0  0  0  0  0  0
  141.6310   79.2860  222.9390 C   0  0  0  0  0  0  0  0  0  0  0  0
  142.0640   80.2110  223.8910 C   0  0  0  0  0  0  0  0  0  0  0  0
  142.1630   81.5610  223.5180 C   0  0  0  0  0  0  0  0  0  0  0  0
  141.8200   81.9590  222.2120 C   0  0  0  0  0  0  0  0  0  0  0  0
  141.3820   81.0090  221.2770 C   0  0  0  0  0  0  0  0  0  0  0  0
  141.3060   79.6700  221.6720 C   0  0  0  0  0  0  0  0  0  0  0  0
  140.8520   78.5010  220.8820 C   0  0  1  0  0  0  0  0  0  0  0  0
  141.6870   78.3290  219.6440 C   0  0  0  0  0  0  0  0  0  0  0  0
  142.1290   79.3410  218.7940 C   0  0  0  0  0  0  0  0  0  0  0  0
  142.9110   78.8300  217.8180 N   0  0  0  0  0  0  0  0  0  0  0  0
  142.9740   77.5080  218.0450 C   0  0  0  0  0  0  0  0  0  0  0  0
  143.6880   76.5590  217.3120 C   0  0  0  0  0  0  0  0  0  0  0  0
  143.6390   75.2220  217.7420 C   0  0  0  0  0  0  0  0  0  0  0  0
  142.8860   74.8640  218.8830 C   0  0  0  0  0  0  0  0  0  0  0  0
  142.1760   75.8430  219.6040 C   0  0  0  0  0  0  0  0  0  0  0  0
  142.2430   77.1620  219.1530 C   0  0  0  0  0  0  0  0  0  0  0  0
  137.4790   76.5606  222.9020 H   0  0  0  0  0  0  0  0  0  0  0  0
  138.8474   76.9234  224.0201 H   0  0  0  0  0  0  0  0  0  0  0  0
  137.5579   78.2498  220.7097 H   0  0  0  0  0  0  0  0  0  0  0  0
  137.2468   80.6922  220.2912 H   0  0  0  0  0  0  0  0  0  0  0  0
  137.7761   82.3463  222.0853 H   0  0  0  0  0  0  0  0  0  0  0  0
  138.6130   81.5617  224.3022 H   0  0  0  0  0  0  0  0  0  0  0  0
  138.9361   79.1246  224.7258 H   0  0  0  0  0  0  0  0  0  0  0  0
  140.6187   77.6429  223.8336 H   0  0  0  0  0  0  0  0  0  0  0  0
  142.3255   77.3347  223.4904 H   0  0  0  0  0  0  0  0  0  0  0  0
  142.3219   79.8892  224.9108 H   0  0  0  0  0  0  0  0  0  0  0  0
  142.5090   82.3085  224.2471 H   0  0  0  0  0  0  0  0  0  0  0  0
  141.8956   83.0179  221.9237 H   0  0  0  0  0  0  0  0  0  0  0  0
  141.1047   81.3109  220.2562 H   0  0  0  0  0  0  0  0  0  0  0  0
  139.8081   78.6242  220.5578 H   0  0  0  0  0  0  0  0  0  0  0  0
  141.8767   80.4062  218.9025 H   0  0  0  0  0  0  0  0  0  0  0  0
  143.3870   79.3630  217.0540 H   0  0  0  0  0  0  0  0  0  0  0  0
  144.2710   76.8485  216.4253 H   0  0  0  0  0  0  0  0  0  0  0  0
  144.1905   74.4490  217.1867 H   0  0  0  0  0  0  0  0  0  0  0  0
  142.8544   73.8141  219.2098 H   0  0  0  0  0  0  0  0  0  0  0  0
  141.5873   75.5767  220.4943 H   0  0  0  0  0  0  0  0  0  0  0  0
  1  2  2  0
  2  3  2  0
  2  4  1  0
  4  5  1  0
  5  6  2  0
  6  7  1  0
  7  8  2  0
  8  9  1  0
  9 10  2  0
  2 11  1  0
 11 12  1  0
 12 13  1  0
 13 14  2  0
 14 15  1  0
 15 16  2  0
 16 17  1  0
 17 18  2  0
 18 19  1  0
 19 20  1  0
 20 21  2  0
 21 22  1  0
 22 23  1  0
 23 24  2  0
 24 25  1  0
 25 26  2  0
 26 27  1  0
 27 28  2  0
 10  5  1  0
 19 11  1  0
 28 20  1  0
 18 13  1  0
 28 23  1  0
  4 29  1  0
  4 30  1  0
  6 31  1  0
  7 32  1  0
  8 33  1  0
  9 34  1  0
 10 35  1  0
 12 36  1  0
 12 37  1  0
 14 38  1  0
 15 39  1  0
 16 40  1  0
 17 41  1  0
 19 42  1  6
 21 43  1  0
 22 44  1  0
 24 45  1  0
 25 46  1  0
 26 47  1  0
 27 48  1  0
M  END
>  <meeko>  (1) 
{"free_energy": -7.59, "intermolecular_energy": -8.78, "internal_energy": -2.31, "cluster_size": 18, "cluster_id": 2, "rank_in_cluster": 4}

$$$$

     RDKit          3D

 48 52  0  0  0  0  0  0  0  0999 V2000
  139.9580   74.9100  222.2590 O   0  0  0  0  0  0  0  0  0  0  0  0
  139.5960   76.3010  221.8190 S   0  0  0  0  0  0  0  0  0  0  0  0
  138.9540   76.2380  220.4610 O   0  0  0  0  0  0  0  0  0  0  0  0
  138.4530   77.0040  222.9970 C   0  0  0  0  0  0  0  0  0  0  0  0
  138.2560   78.4690  222.7290 C   0  0  0  0  0  0  0  0  0  0  0  0
  138.5660   79.4190  223.7170 C   0  0  0  0  0  0  0  0  0  0  0  0
  138.4050   80.7840  223.4560 C   0  0  0  0  0  0  0  0  0  0  0  0
  137.9440   81.2080  222.2060 C   0  0  0  0  0  0  0  0  0  0  0  0
  137.6460   80.2700  221.2140 C   0  0  0  0  0  0  0  0  0  0  0  0
  137.8030   78.9050  221.4720 C   0  0  0  0  0  0  0  0  0  0  0  0
  141.0380   77.2830  221.7580 N   0  0  0  0  0  0  0  0  0  0  0  0
  141.4210   77.7730  223.1020 C   0  0  0  0  0  0  0  0  0  0  0  0
  141.6340   79.2270  222.9470 C   0  0  0  0  0  0  0  0  0  0  0  0
  142.0700   80.1400  223.9080 C   0  0  0  0  0  0  0  0  0  0  0  0
  142.1720   81.4940  223.5480 C   0  0  0  0  0  0  0  0  0  0  0  0
  141.8290   81.9060  222.2470 C   0  0  0  0  0  0  0  0  0  0  0  0
  141.3860   80.9670  221.3030 C   0  0  0  0  0  0  0  0  0  0  0  0
  141.3080   79.6240  221.6850 C   0  0  0  0  0  0  0  0  0  0  0  0
  140.8500   78.4650  220.8840 C   0  0  1  0  0  0  0  0  0  0  0  0
  141.6820   78.3020  219.6430 C   0  0  0  0  0  0  0  0  0  0  0  0
  142.1140   79.3210  218.7940 C   0  0  0  0  0  0  0  0  0  0  0  0
  142.8980   78.8190  217.8140 N   0  0  0  0  0  0  0  0  0  0  0  0
  142.9720   77.4960  218.0380 C   0  0  0  0  0  0  0  0  0  0  0  0
  143.6910   76.5560  217.3000 C   0  0  0  0  0  0  0  0  0  0  0  0
  143.6550   75.2170  217.7270 C   0  0  0  0  0  0  0  0  0  0  0  0
  142.9080   74.8490  218.8690 C   0  0  0  0  0  0  0  0  0  0  0  0
  142.1920   75.8210  219.5940 C   0  0  0  0  0  0  0  0  0  0  0  0
  142.2470   77.1410  219.1470 C   0  0  0  0  0  0  0  0  0  0  0  0
  137.4852   76.4876  222.9148 H   0  0  0  0  0  0  0  0  0  0  0  0
  138.8644   76.8797  224.0096 H   0  0  0  0  0  0  0  0  0  0  0  0
  138.9364   79.0884  224.6986 H   0  0  0  0  0  0  0  0  0  0  0  0
  138.6413   81.5241  224.2347 H   0  0  0  0  0  0  0  0  0  0  0  0
  137.8157   82.2815  222.0031 H   0  0  0  0  0  0  0  0  0  0  0  0
  137.2877   80.6058  220.2297 H   0  0  0  0  0  0  0  0  0  0  0  0
  137.5710   78.1692  220.6880 H   0  0  0  0  0  0  0  0  0  0  0  0
  140.6163   77.5775  223.8261 H   0  0  0  0  0  0  0  0  0  0  0  0
  142.3219   77.2668  223.4792 H   0  0  0  0  0  0  0  0  0  0  0  0
  142.3279   79.8071  224.9242 H   0  0  0  0  0  0  0  0  0  0  0  0
  142.5205   82.2333  224.2842 H   0  0  0  0  0  0  0  0  0  0  0  0
  141.9084   82.9674  221.9691 H   0  0  0  0  0  0  0  0  0  0  0  0
  141.1066   81.2800  220.2862 H   0  0  0  0  0  0  0  0  0  0  0  0
  139.8061   78.5954  220.5626 H   0  0  0  0  0  0  0  0  0  0  0  0
  141.8533   80.3837  218.9063 H   0  0  0  0  0  0  0  0  0  0  0  0
  143.3670   79.3580  217.0510 H   0  0  0  0  0  0  0  0  0  0  0  0
  144.2680   76.8529  216.4118 H   0  0  0  0  0  0  0  0  0  0  0  0
  144.2121   74.4504  217.1684 H   0  0  0  0  0  0  0  0  0  0  0  0
  142.8858   73.7981  219.1931 H   0  0  0  0  0  0  0  0  0  0  0  0
  141.6076   75.5477  220.4850 H   0  0  0  0  0  0  0  0  0  0  0  0
  1  2  2  0
  2  3  2  0
  2  4  1  0
  4  5  1  0
  5  6  2  0
  6  7  1  0
  7  8  2  0
  8  9  1  0
  9 10  2  0
  2 11  1  0
 11 12  1  0
 12 13  1  0
 13 14  2  0
 14 15  1  0
 15 16  2  0
 16 17  1  0
 17 18  2  0
 18 19  1  0
 19 20  1  0
 20 21  2  0
 21 22  1  0
 22 23  1  0
 23 24  2  0
 24 25  1  0
 25 26  2  0
 26 27  1  0
 27 28  2  0
 10  5  1  0
 19 11  1  0
 28 20  1  0
 18 13  1  0
 28 23  1  0
  4 29  1  0
  4 30  1  0
  6 31  1  0
  7 32  1  0
  8 33  1  0
  9 34  1  0
 10 35  1  0
 12 36  1  0
 12 37  1  0
 14 38  1  0
 15 39  1  0
 16 40  1  0
 17 41  1  0
 19 42  1  6
 21 43  1  0
 22 44  1  0
 24 45  1  0
 25 46  1  0
 26 47  1  0
 27 48  1  0
M  END
>  <meeko>  (2) 
{"free_energy": -7.57, "intermolecular_energy": -8.77, "internal_energy": -2.32, "cluster_size": 18, "cluster_id": 2, "rank_in_cluster": 9}

$$$$

     RDKit          3D

 48 52  0  0  0  0  0  0  0  0999 V2000
  139.9430   74.9350  222.2630 O   0  0  0  0  0  0  0  0  0  0  0  0
  139.5880   76.3220  221.8040 S   0  0  0  0  0  0  0  0  0  0  0  0
  138.9620   76.2440  220.4380 O   0  0  0  0  0  0  0  0  0  0  0  0
  138.4310   77.0380  222.9600 C   0  0  0  0  0  0  0  0  0  0  0  0
  138.2660   78.5080  222.6970 C   0  0  0  0  0  0  0  0  0  0  0  0
  137.7830   78.9560  221.4560 C   0  0  0  0  0  0  0  0  0  0  0  0
  137.6060   80.3240  221.2230 C   0  0  0  0  0  0  0  0  0  0  0  0
  137.9000   81.2500  222.2280 C   0  0  0  0  0  0  0  0  0  0  0  0
  138.3670   80.8100  223.4700 C   0  0  0  0  0  0  0  0  0  0  0  0
  138.5480   79.4440  223.7060 C   0  0  0  0  0  0  0  0  0  0  0  0
  141.0310   77.3020  221.7500 N   0  0  0  0  0  0  0  0  0  0  0  0
  141.4090   77.7910  223.0970 C   0  0  0  0  0  0  0  0  0  0  0  0
  141.6230   79.2440  222.9440 C   0  0  0  0  0  0  0  0  0  0  0  0
  142.0560   80.1570  223.9070 C   0  0  0  0  0  0  0  0  0  0  0  0
  142.1610   81.5100  223.5490 C   0  0  0  0  0  0  0  0  0  0  0  0
  141.8250   81.9240  222.2460 C   0  0  0  0  0  0  0  0  0  0  0  0
  141.3860   80.9860  221.2990 C   0  0  0  0  0  0  0  0  0  0  0  0
  141.3040   79.6430  221.6800 C   0  0  0  0  0  0  0  0  0  0  0  0
  140.8480   78.4850  220.8760 C   0  0  1  0  0  0  0  0  0  0  0  0
  141.6860   78.3220  219.6380 C   0  0  0  0  0  0  0  0  0  0  0  0
  142.1360   79.3430  218.8010 C   0  0  0  0  0  0  0  0  0  0  0  0
  142.9190   78.8390  217.8220 N   0  0  0  0  0  0  0  0  0  0  0  0
  142.9760   77.5140  218.0350 C   0  0  0  0  0  0  0  0  0  0  0  0
  143.6880   76.5710  217.2940 C   0  0  0  0  0  0  0  0  0  0  0  0
  143.6320   75.2280  217.7090 C   0  0  0  0  0  0  0  0  0  0  0  0
  142.8740   74.8610  218.8430 C   0  0  0  0  0  0  0  0  0  0  0  0
  142.1650   75.8350  219.5720 C   0  0  0  0  0  0  0  0  0  0  0  0
  142.2400   77.1590  219.1370 C   0  0  0  0  0  0  0  0  0  0  0  0
  137.4564   76.5394  222.8525 H   0  0  0  0  0  0  0  0  0  0  0  0
  138.8168   76.9003  223.9809 H   0  0  0  0  0  0  0  0  0  0  0  0
  137.5435   78.2293  220.6657 H   0  0  0  0  0  0  0  0  0  0  0  0
  137.2349   80.6715  220.2475 H   0  0  0  0  0  0  0  0  0  0  0  0
  137.7638   82.3255  222.0415 H   0  0  0  0  0  0  0  0  0  0  0  0
  138.5922   81.5392  224.2622 H   0  0  0  0  0  0  0  0  0  0  0  0
  138.9126   79.1008  224.6854 H   0  0  0  0  0  0  0  0  0  0  0  0
  140.6013   77.5952  223.8176 H   0  0  0  0  0  0  0  0  0  0  0  0
  142.3080   77.2841  223.4775 H   0  0  0  0  0  0  0  0  0  0  0  0
  142.3094   79.8234  224.9241 H   0  0  0  0  0  0  0  0  0  0  0  0
  142.5064   82.2482  224.2877 H   0  0  0  0  0  0  0  0  0  0  0  0
  141.9068   82.9855  221.9695 H   0  0  0  0  0  0  0  0  0  0  0  0
  141.1128   81.2999  220.2807 H   0  0  0  0  0  0  0  0  0  0  0  0
  139.8057   78.6168  220.5501 H   0  0  0  0  0  0  0  0  0  0  0  0
  141.8884   80.4080  218.9210 H   0  0  0  0  0  0  0  0  0  0  0  0
  143.4000   79.3790  217.0670 H   0  0  0  0  0  0  0  0  0  0  0  0
  144.2751   76.8682  216.4125 H   0  0  0  0  0  0  0  0  0  0  0  0
  144.1820   74.4589  217.1469 H   0  0  0  0  0  0  0  0  0  0  0  0
  142.8373   73.8079  219.1586 H   0  0  0  0  0  0  0  0  0  0  0  0
  141.5709   75.5610  220.4563 H   0  0  0  0  0  0  0  0  0  0  0  0
  1  2  2  0
  2  3  2  0
  2  4  1  0
  4  5  1  0
  5  6  2  0
  6  7  1  0
  7  8  2  0
  8  9  1  0
  9 10  2  0
  2 11  1  0
 11 12  1  0
 12 13  1  0
 13 14  2  0
 14 15  1  0
 15 16  2  0
 16 17  1  0
 17 18  2  0
 18 19  1  0
 19 20  1  0
 20 21  2  0
 21 22  1  0
 22 23  1  0
 23 24  2  0
 24 25  1  0
 25 26  2  0
 26 27  1  0
 27 28  2  0
 10  5  1  0
 19 11  1  0
 28 20  1  0
 18 13  1  0
 28 23  1  0
  4 29  1  0
  4 30  1  0
  6 31  1  0
  7 32  1  0
  8 33  1  0
  9 34  1  0
 10 35  1  0
 12 36  1  0
 12 37  1  0
 14 38  1  0
 15 39  1  0
 16 40  1  0
 17 41  1  0
 19 42  1  6
 21 43  1  0
 22 44  1  0
 24 45  1  0
 25 46  1  0
 26 47  1  0
 27 48  1  0
M  END
>  <meeko>  (3) 
{"free_energy": -7.58, "intermolecular_energy": -8.78, "internal_energy": -2.31, "cluster_size": 18, "cluster_id": 2, "rank_in_cluster": 6}

$$$$

     RDKit          3D

 48 52  0  0  0  0  0  0  0  0999 V2000
  139.9590   74.9030  222.2600 O   0  0  0  0  0  0  0  0  0  0  0  0
  139.5990   76.2940  221.8160 S   0  0  0  0  0  0  0  0  0  0  0  0
  138.9650   76.2280  220.4530 O   0  0  0  0  0  0  0  0  0  0  0  0
  138.4470   76.9980  222.9850 C   0  0  0  0  0  0  0  0  0  0  0  0
  138.2460   78.4610  222.7100 C   0  0  0  0  0  0  0  0  0  0  0  0
  138.5560   79.4160  223.6920 C   0  0  0  0  0  0  0  0  0  0  0  0
  138.3920   80.7790  223.4250 C   0  0  0  0  0  0  0  0  0  0  0  0
  137.9290   81.1970  222.1740 C   0  0  0  0  0  0  0  0  0  0  0  0
  137.6320   80.2530  221.1870 C   0  0  0  0  0  0  0  0  0  0  0  0
  137.7920   78.8900  221.4510 C   0  0  0  0  0  0  0  0  0  0  0  0
  141.0400   77.2770  221.7620 N   0  0  0  0  0  0  0  0  0  0  0  0
  141.4210   77.7600  223.1100 C   0  0  0  0  0  0  0  0  0  0  0  0
  141.6330   79.2140  222.9640 C   0  0  0  0  0  0  0  0  0  0  0  0
  142.0670   80.1230  223.9300 C   0  0  0  0  0  0  0  0  0  0  0  0
  142.1690   81.4780  223.5780 C   0  0  0  0  0  0  0  0  0  0  0  0
  141.8280   81.8970  222.2780 C   0  0  0  0  0  0  0  0  0  0  0  0
  141.3870   80.9630  221.3280 C   0  0  0  0  0  0  0  0  0  0  0  0
  141.3090   79.6180  221.7020 C   0  0  0  0  0  0  0  0  0  0  0  0
  140.8530   78.4630  220.8940 C   0  0  1  0  0  0  0  0  0  0  0  0
  141.6880   78.3080  219.6540 C   0  0  0  0  0  0  0  0  0  0  0  0
  142.1410   79.3340  218.8250 C   0  0  0  0  0  0  0  0  0  0  0  0
  142.9200   78.8350  217.8400 N   0  0  0  0  0  0  0  0  0  0  0  0
  142.9700   77.5080  218.0400 C   0  0  0  0  0  0  0  0  0  0  0  0
  143.6770   76.5680  217.2890 C   0  0  0  0  0  0  0  0  0  0  0  0
  143.6150   75.2220  217.6920 C   0  0  0  0  0  0  0  0  0  0  0  0
  142.8560   74.8480  218.8250 C   0  0  0  0  0  0  0  0  0  0  0  0
  142.1540   75.8190  219.5640 C   0  0  0  0  0  0  0  0  0  0  0  0
  142.2340   77.1460  219.1410 C   0  0  0  0  0  0  0  0  0  0  0  0
  137.4816   76.4777  222.8999 H   0  0  0  0  0  0  0  0  0  0  0  0
  138.8535   76.8795  224.0002 H   0  0  0  0  0  0  0  0  0  0  0  0
  138.9290   79.0909  224.6744 H   0  0  0  0  0  0  0  0  0  0  0  0
  138.6276   81.5229  224.2003 H   0  0  0  0  0  0  0  0  0  0  0  0
  137.7984   82.2693  221.9663 H   0  0  0  0  0  0  0  0  0  0  0  0
  137.2720   80.5832  220.2014 H   0  0  0  0  0  0  0  0  0  0  0  0
  137.5617   78.1500  220.6703 H   0  0  0  0  0  0  0  0  0  0  0  0
  140.6155   77.5597  223.8318 H   0  0  0  0  0  0  0  0  0  0  0  0
  142.3218   77.2524  223.4853 H   0  0  0  0  0  0  0  0  0  0  0  0
  142.3235   79.7850  224.9449 H   0  0  0  0  0  0  0  0  0  0  0  0
  142.5158   82.2134  224.3189 H   0  0  0  0  0  0  0  0  0  0  0  0
  141.9075   82.9599  222.0060 H   0  0  0  0  0  0  0  0  0  0  0  0
  141.1091   81.2817  220.3125 H   0  0  0  0  0  0  0  0  0  0  0  0
  139.8096   78.5938  220.5711 H   0  0  0  0  0  0  0  0  0  0  0  0
  141.8984   80.3991  218.9547 H   0  0  0  0  0  0  0  0  0  0  0  0
  143.4020   79.3790  217.0880 H   0  0  0  0  0  0  0  0  0  0  0  0
  144.2643   76.8703  216.4094 H   0  0  0  0  0  0  0  0  0  0  0  0
  144.1604   74.4553  217.1222 H   0  0  0  0  0  0  0  0  0  0  0  0
  142.8139   73.7922  219.1307 H   0  0  0  0  0  0  0  0  0  0  0  0
  141.5609   75.5401  220.4474 H   0  0  0  0  0  0  0  0  0  0  0  0
  1  2  2  0
  2  3  2  0
  2  4  1  0
  4  5  1  0
  5  6  2  0
  6  7  1  0
  7  8  2  0
  8  9  1  0
  9 10  2  0
  2 11  1  0
 11 12  1  0
 12 13  1  0
 13 14  2  0
 14 15  1  0
 15 16  2  0
 16 17  1  0
 17 18  2  0
 18 19  1  0
 19 20  1  0
 20 21  2  0
 21 22  1  0
 22 23  1  0
 23 24  2  0
 24 25  1  0
 25 26  2  0
 26 27  1  0
 27 28  2  0
 10  5  1  0
 19 11  1  0
 28 20  1  0
 18 13  1  0
 28 23  1  0
  4 29  1  0
  4 30  1  0
  6 31  1  0
  7 32  1  0
  8 33  1  0
  9 34  1  0
 10 35  1  0
 12 36  1  0
 12 37  1  0
 14 38  1  0
 15 39  1  0
 16 40  1  0
 17 41  1  0
 19 42  1  6
 21 43  1  0
 22 44  1  0
 24 45  1  0
 25 46  1  0
 26 47  1  0
 27 48  1  0
M  END
>  <meeko>  (4) 
{"free_energy": -7.57, "intermolecular_energy": -8.76, "internal_energy": -2.33, "cluster_size": 18, "cluster_id": 2, "rank_in_cluster": 12}

$$$$

     RDKit          3D

 48 52  0  0  0  0  0  0  0  0999 V2000
  139.9300   74.8940  222.2830 O   0  0  0  0  0  0  0  0  0  0  0  0
  139.5740   76.2810  221.8230 S   0  0  0  0  0  0  0  0  0  0  0  0
  138.9390   76.2010  220.4620 O   0  0  0  0  0  0  0  0  0  0  0  0
  138.4270   77.0030  222.9850 C   0  0  0  0  0  0  0  0  0  0  0  0
  138.2660   78.4730  222.7210 C   0  0  0  0  0  0  0  0  0  0  0  0
  137.7780   78.9220  221.4830 C   0  0  0  0  0  0  0  0  0  0  0  0
  137.6050   80.2900  221.2490 C   0  0  0  0  0  0  0  0  0  0  0  0
  137.9080   81.2160  222.2520 C   0  0  0  0  0  0  0  0  0  0  0  0
  138.3810   80.7760  223.4910 C   0  0  0  0  0  0  0  0  0  0  0  0
  138.5580   79.4100  223.7280 C   0  0  0  0  0  0  0  0  0  0  0  0
  141.0190   77.2580  221.7560 N   0  0  0  0  0  0  0  0  0  0  0  0
  141.3990   77.7610  223.0970 C   0  0  0  0  0  0  0  0  0  0  0  0
  141.6160   79.2120  222.9280 C   0  0  0  0  0  0  0  0  0  0  0  0
  142.0520   80.1340  223.8810 C   0  0  0  0  0  0  0  0  0  0  0  0
  142.1590   81.4840  223.5080 C   0  0  0  0  0  0  0  0  0  0  0  0
  141.8220   81.8830  222.2010 C   0  0  0  0  0  0  0  0  0  0  0  0
  141.3800   80.9360  221.2650 C   0  0  0  0  0  0  0  0  0  0  0  0
  141.2960   79.5970  221.6600 C   0  0  0  0  0  0  0  0  0  0  0  0
  140.8370   78.4310  220.8700 C   0  0  1  0  0  0  0  0  0  0  0  0
  141.6740   78.2540  219.6330 C   0  0  0  0  0  0  0  0  0  0  0  0
  142.1090   79.2620  218.7750 C   0  0  0  0  0  0  0  0  0  0  0  0
  142.8960   78.7480  217.8030 N   0  0  0  0  0  0  0  0  0  0  0  0
  142.9680   77.4280  218.0420 C   0  0  0  0  0  0  0  0  0  0  0  0
  143.6890   76.4780  217.3180 C   0  0  0  0  0  0  0  0  0  0  0  0
  143.6490   75.1440  217.7600 C   0  0  0  0  0  0  0  0  0  0  0  0
  142.8980   74.7910  218.9030 C   0  0  0  0  0  0  0  0  0  0  0  0
  142.1810   75.7720  219.6150 C   0  0  0  0  0  0  0  0  0  0  0  0
  142.2390   77.0860  219.1530 C   0  0  0  0  0  0  0  0  0  0  0  0
  137.4499   76.5080  222.8842 H   0  0  0  0  0  0  0  0  0  0  0  0
  138.8186   76.8653  224.0037 H   0  0  0  0  0  0  0  0  0  0  0  0
  137.5311   78.1954  220.6949 H   0  0  0  0  0  0  0  0  0  0  0  0
  137.2302   80.6378  220.2750 H   0  0  0  0  0  0  0  0  0  0  0  0
  137.7739   82.2917  222.0655 H   0  0  0  0  0  0  0  0  0  0  0  0
  138.6143   81.5054  224.2806 H   0  0  0  0  0  0  0  0  0  0  0  0
  138.9270   79.0667  224.7057 H   0  0  0  0  0  0  0  0  0  0  0  0
  140.5914   77.5749  223.8203 H   0  0  0  0  0  0  0  0  0  0  0  0
  142.2973   77.2565  223.4823 H   0  0  0  0  0  0  0  0  0  0  0  0
  142.3061   79.8106  224.9012 H   0  0  0  0  0  0  0  0  0  0  0  0
  142.5064   82.2300  224.2379 H   0  0  0  0  0  0  0  0  0  0  0  0
  141.9055   82.9412  221.9124 H   0  0  0  0  0  0  0  0  0  0  0  0
  141.1058   81.2397  220.2439 H   0  0  0  0  0  0  0  0  0  0  0  0
  139.7943   78.5601  220.5443 H   0  0  0  0  0  0  0  0  0  0  0  0
  141.8488   80.3262  218.8744 H   0  0  0  0  0  0  0  0  0  0  0  0
  143.3680   79.2780  217.0360 H   0  0  0  0  0  0  0  0  0  0  0  0
  144.2706   76.7638  216.4291 H   0  0  0  0  0  0  0  0  0  0  0  0
  144.2063   74.3700  217.2120 H   0  0  0  0  0  0  0  0  0  0  0  0
  142.8730   73.7439  219.2390 H   0  0  0  0  0  0  0  0  0  0  0  0
  141.5938   75.5097  220.5074 H   0  0  0  0  0  0  0  0  0  0  0  0
  1  2  2  0
  2  3  2  0
  2  4  1  0
  4  5  1  0
  5  6  2  0
  6  7  1  0
  7  8  2  0
  8  9  1  0
  9 10  2  0
  2 11  1  0
 11 12  1  0
 12 13  1  0
 13 14  2  0
 14 15  1  0
 15 16  2  0
 16 17  1  0
 17 18  2  0
 18 19  1  0
 19 20  1  0
 20 21  2  0
 21 22  1  0
 22 23  1  0
 23 24  2  0
 24 25  1  0
 25 26  2  0
 26 27  1  0
 27 28  2  0
 10  5  1  0
 19 11  1  0
 28 20  1  0
 18 13  1  0
 28 23  1  0
  4 29  1  0
  4 30  1  0
  6 31  1  0
  7 32  1  0
  8 33  1  0
  9 34  1  0
 10 35  1  0
 12 36  1  0
 12 37  1  0
 14 38  1  0
 15 39  1  0
 16 40  1  0
 17 41  1  0
 19 42  1  6
 21 43  1  0
 22 44  1  0
 24 45  1  0
 25 46  1  0
 26 47  1  0
 27 48  1  0
M  END
>  <meeko>  (5) 
{"free_energy": -7.58, "intermolecular_energy": -8.78, "internal_energy": -2.31, "cluster_size": 18, "cluster_id": 2, "rank_in_cluster": 5}

$$$$

     RDKit          3D

 48 52  0  0  0  0  0  0  0  0999 V2000
  139.9540   74.9080  222.2300 O   0  0  0  0  0  0  0  0  0  0  0  0
  139.5930   76.3000  221.7910 S   0  0  0  0  0  0  0  0  0  0  0  0
  138.9570   76.2390  220.4300 O   0  0  0  0  0  0  0  0  0  0  0  0
  138.4450   77.0010  222.9660 C   0  0  0  0  0  0  0  0  0  0  0  0
  138.2750   78.4740  222.7210 C   0  0  0  0  0  0  0  0  0  0  0  0
  137.7800   78.9350  221.4900 C   0  0  0  0  0  0  0  0  0  0  0  0
  137.5980   80.3040  221.2730 C   0  0  0  0  0  0  0  0  0  0  0  0
  137.8990   81.2200  222.2860 C   0  0  0  0  0  0  0  0  0  0  0  0
  138.3790   80.7670  223.5190 C   0  0  0  0  0  0  0  0  0  0  0  0
  138.5640   79.3990  223.7380 C   0  0  0  0  0  0  0  0  0  0  0  0
  141.0350   77.2830  221.7380 N   0  0  0  0  0  0  0  0  0  0  0  0
  141.4140   77.7690  223.0850 C   0  0  0  0  0  0  0  0  0  0  0  0
  141.6270   79.2230  222.9360 C   0  0  0  0  0  0  0  0  0  0  0  0
  142.0600   80.1340  223.9010 C   0  0  0  0  0  0  0  0  0  0  0  0
  142.1630   81.4880  223.5460 C   0  0  0  0  0  0  0  0  0  0  0  0
  141.8230   81.9040  222.2450 C   0  0  0  0  0  0  0  0  0  0  0  0
  141.3840   80.9680  221.2960 C   0  0  0  0  0  0  0  0  0  0  0  0
  141.3050   79.6240  221.6730 C   0  0  0  0  0  0  0  0  0  0  0  0
  140.8490   78.4670  220.8670 C   0  0  1  0  0  0  0  0  0  0  0  0
  141.6860   78.3100  219.6280 C   0  0  0  0  0  0  0  0  0  0  0  0
  142.1180   79.3310  218.7830 C   0  0  0  0  0  0  0  0  0  0  0  0
  142.9060   78.8330  217.8050 N   0  0  0  0  0  0  0  0  0  0  0  0
  142.9810   77.5090  218.0250 C   0  0  0  0  0  0  0  0  0  0  0  0
  143.7040   76.5720  217.2870 C   0  0  0  0  0  0  0  0  0  0  0  0
  143.6680   75.2310  217.7100 C   0  0  0  0  0  0  0  0  0  0  0  0
  142.9180   74.8600  218.8490 C   0  0  0  0  0  0  0  0  0  0  0  0
  142.1990   75.8290  219.5750 C   0  0  0  0  0  0  0  0  0  0  0  0
  142.2530   77.1510  219.1320 C   0  0  0  0  0  0  0  0  0  0  0  0
  137.4703   76.5018  222.8618 H   0  0  0  0  0  0  0  0  0  0  0  0
  138.8404   76.8525  223.9817 H   0  0  0  0  0  0  0  0  0  0  0  0
  137.5347   78.2164  220.6941 H   0  0  0  0  0  0  0  0  0  0  0  0
  137.2177   80.6610  220.3045 H   0  0  0  0  0  0  0  0  0  0  0  0
  137.7582   82.2971  222.1129 H   0  0  0  0  0  0  0  0  0  0  0  0
  138.6111   81.4877  224.3169 H   0  0  0  0  0  0  0  0  0  0  0  0
  138.9373   79.0453  224.7104 H   0  0  0  0  0  0  0  0  0  0  0  0
  140.6072   77.5708  223.8060 H   0  0  0  0  0  0  0  0  0  0  0  0
  142.3141   77.2619  223.4629 H   0  0  0  0  0  0  0  0  0  0  0  0
  142.3148   79.7982  224.9170 H   0  0  0  0  0  0  0  0  0  0  0  0
  142.5098   82.2249  224.2854 H   0  0  0  0  0  0  0  0  0  0  0  0
  141.9017   82.9665  221.9712 H   0  0  0  0  0  0  0  0  0  0  0  0
  141.1085   81.2844  220.2792 H   0  0  0  0  0  0  0  0  0  0  0  0
  139.8059   78.5965  220.5428 H   0  0  0  0  0  0  0  0  0  0  0  0
  141.8544   80.3929  218.8965 H   0  0  0  0  0  0  0  0  0  0  0  0
  143.3760   79.3740  217.0450 H   0  0  0  0  0  0  0  0  0  0  0  0
  144.2841   76.8723  216.4020 H   0  0  0  0  0  0  0  0  0  0  0  0
  144.2271   74.4663  217.1508 H   0  0  0  0  0  0  0  0  0  0  0  0
  142.8958   73.8082  219.1703 H   0  0  0  0  0  0  0  0  0  0  0  0
  141.6130   75.5523  220.4638 H   0  0  0  0  0  0  0  0  0  0  0  0
  1  2  2  0
  2  3  2  0
  2  4  1  0
  4  5  1  0
  5  6  2  0
  6  7  1  0
  7  8  2  0
  8  9  1  0
  9 10  2  0
  2 11  1  0
 11 12  1  0
 12 13  1  0
 13 14  2  0
 14 15  1  0
 15 16  2  0
 16 17  1  0
 17 18  2  0
 18 19  1  0
 19 20  1  0
 20 21  2  0
 21 22  1  0
 22 23  1  0
 23 24  2  0
 24 25  1  0
 25 26  2  0
 26 27  1  0
 27 28  2  0
 10  5  1  0
 19 11  1  0
 28 20  1  0
 18 13  1  0
 28 23  1  0
  4 29  1  0
  4 30  1  0
  6 31  1  0
  7 32  1  0
  8 33  1  0
  9 34  1  0
 10 35  1  0
 12 36  1  0
 12 37  1  0
 14 38  1  0
 15 39  1  0
 16 40  1  0
 17 41  1  0
 19 42  1  6
 21 43  1  0
 22 44  1  0
 24 45  1  0
 25 46  1  0
 26 47  1  0
 27 48  1  0
M  END
>  <meeko>  (6) 
{"free_energy": -7.58, "intermolecular_energy": -8.77, "internal_energy": -2.32, "cluster_size": 18, "cluster_id": 2, "rank_in_cluster": 8}

$$$$

     RDKit          3D

 48 52  0  0  0  0  0  0  0  0999 V2000
  139.9640   75.0050  222.2920 O   0  0  0  0  0  0  0  0  0  0  0  0
  139.6000   76.3870  221.8260 S   0  0  0  0  0  0  0  0  0  0  0  0
  138.9670   76.2980  220.4640 O   0  0  0  0  0  0  0  0  0  0  0  0
  138.4470   77.1060  222.9840 C   0  0  0  0  0  0  0  0  0  0  0  0
  138.2790   78.5750  222.7160 C   0  0  0  0  0  0  0  0  0  0  0  0
  137.7940   79.0180  221.4740 C   0  0  0  0  0  0  0  0  0  0  0  0
  137.6140   80.3840  221.2350 C   0  0  0  0  0  0  0  0  0  0  0  0
  137.9070   81.3150  222.2370 C   0  0  0  0  0  0  0  0  0  0  0  0
  138.3770   80.8800  223.4800 C   0  0  0  0  0  0  0  0  0  0  0  0
  138.5610   79.5160  223.7210 C   0  0  0  0  0  0  0  0  0  0  0  0
  141.0390   77.3730  221.7570 N   0  0  0  0  0  0  0  0  0  0  0  0
  141.4150   77.8830  223.0960 C   0  0  0  0  0  0  0  0  0  0  0  0
  141.6230   79.3350  222.9210 C   0  0  0  0  0  0  0  0  0  0  0  0
  142.0530   80.2640  223.8710 C   0  0  0  0  0  0  0  0  0  0  0  0
  142.1520   81.6120  223.4920 C   0  0  0  0  0  0  0  0  0  0  0  0
  141.8130   82.0050  222.1840 C   0  0  0  0  0  0  0  0  0  0  0  0
  141.3780   81.0510  221.2510 C   0  0  0  0  0  0  0  0  0  0  0  0
  141.3020   79.7130  221.6510 C   0  0  0  0  0  0  0  0  0  0  0  0
  140.8510   78.5410  220.8650 C   0  0  1  0  0  0  0  0  0  0  0  0
  141.6900   78.3640  219.6300 C   0  0  0  0  0  0  0  0  0  0  0  0
  142.1390   79.3740  218.7810 C   0  0  0  0  0  0  0  0  0  0  0  0
  142.9240   78.8590  217.8080 N   0  0  0  0  0  0  0  0  0  0  0  0
  142.9810   77.5360  218.0370 C   0  0  0  0  0  0  0  0  0  0  0  0
  143.6940   76.5840  217.3080 C   0  0  0  0  0  0  0  0  0  0  0  0
  143.6380   75.2470  217.7400 C   0  0  0  0  0  0  0  0  0  0  0  0
  142.8790   74.8930  218.8780 C   0  0  0  0  0  0  0  0  0  0  0  0
  142.1700   75.8770  219.5950 C   0  0  0  0  0  0  0  0  0  0  0  0
  142.2440   77.1940  219.1440 C   0  0  0  0  0  0  0  0  0  0  0  0
  137.4726   76.6058  222.8825 H   0  0  0  0  0  0  0  0  0  0  0  0
  138.8373   76.9728  224.0038 H   0  0  0  0  0  0  0  0  0  0  0  0
  137.5550   78.2877  220.6868 H   0  0  0  0  0  0  0  0  0  0  0  0
  137.2417   80.7267  220.2583 H   0  0  0  0  0  0  0  0  0  0  0  0
  137.7676   82.3895  222.0471 H   0  0  0  0  0  0  0  0  0  0  0  0
  138.6022   81.6125  224.2691 H   0  0  0  0  0  0  0  0  0  0  0  0
  138.9280   79.1774  224.7011 H   0  0  0  0  0  0  0  0  0  0  0  0
  140.6082   77.6947  223.8196 H   0  0  0  0  0  0  0  0  0  0  0  0
  142.3160   77.3854  223.4840 H   0  0  0  0  0  0  0  0  0  0  0  0
  142.3083   79.9467  224.8928 H   0  0  0  0  0  0  0  0  0  0  0  0
  142.4953   82.3627  224.2190 H   0  0  0  0  0  0  0  0  0  0  0  0
  141.8892   83.0628  221.8920 H   0  0  0  0  0  0  0  0  0  0  0  0
  141.1031   81.3489  220.2284 H   0  0  0  0  0  0  0  0  0  0  0  0
  139.8081   78.6622  220.5370 H   0  0  0  0  0  0  0  0  0  0  0  0
  141.8898   80.4401  218.8875 H   0  0  0  0  0  0  0  0  0  0  0  0
  143.4040   79.3890  217.0460 H   0  0  0  0  0  0  0  0  0  0  0  0
  144.2815   76.8702  216.4231 H   0  0  0  0  0  0  0  0  0  0  0  0
  144.1890   74.4712  217.1881 H   0  0  0  0  0  0  0  0  0  0  0  0
  142.8415   73.8437  219.2059 H   0  0  0  0  0  0  0  0  0  0  0  0
  141.5765   75.6142  220.4831 H   0  0  0  0  0  0  0  0  0  0  0  0
  1  2  2  0
  2  3  2  0
  2  4  1  0
  4  5  1  0
  5  6  2  0
  6  7  1  0
  7  8  2  0
  8  9  1  0
  9 10  2  0
  2 11  1  0
 11 12  1  0
 12 13  1  0
 13 14  2  0
 14 15  1  0
 15 16  2  0
 16 17  1  0
 17 18  2  0
 18 19  1  0
 19 20  1  0
 20 21  2  0
 21 22  1  0
 22 23  1  0
 23 24  2  0
 24 25  1  0
 25 26  2  0
 26 27  1  0
 27 28  2  0
 10  5  1  0
 19 11  1  0
 28 20  1  0
 18 13  1  0
 28 23  1  0
  4 29  1  0
  4 30  1  0
  6 31  1  0
  7 32  1  0
  8 33  1  0
  9 34  1  0
 10 35  1  0
 12 36  1  0
 12 37  1  0
 14 38  1  0
 15 39  1  0
 16 40  1  0
 17 41  1  0
 19 42  1  6
 21 43  1  0
 22 44  1  0
 24 45  1  0
 25 46  1  0
 26 47  1  0
 27 48  1  0
M  END
>  <meeko>  (7) 
{"free_energy": -7.58, "intermolecular_energy": -8.78, "internal_energy": -2.31, "cluster_size": 18, "cluster_id": 2, "rank_in_cluster": 7}

$$$$

     RDKit          3D

 48 52  0  0  0  0  0  0  0  0999 V2000
  139.9430   74.8890  222.2340 O   0  0  0  0  0  0  0  0  0  0  0  0
  139.5830   76.2820  221.7980 S   0  0  0  0  0  0  0  0  0  0  0  0
  138.9470   76.2230  220.4360 O   0  0  0  0  0  0  0  0  0  0  0  0
  138.4350   76.9810  222.9730 C   0  0  0  0  0  0  0  0  0  0  0  0
  138.2340   78.4450  222.7050 C   0  0  0  0  0  0  0  0  0  0  0  0
  138.5410   79.3950  223.6940 C   0  0  0  0  0  0  0  0  0  0  0  0
  138.3770   80.7600  223.4340 C   0  0  0  0  0  0  0  0  0  0  0  0
  137.9160   81.1840  222.1840 C   0  0  0  0  0  0  0  0  0  0  0  0
  137.6220   80.2450  221.1910 C   0  0  0  0  0  0  0  0  0  0  0  0
  137.7820   78.8810  221.4480 C   0  0  0  0  0  0  0  0  0  0  0  0
  141.0250   77.2640  221.7470 N   0  0  0  0  0  0  0  0  0  0  0  0
  141.4060   77.7430  223.0960 C   0  0  0  0  0  0  0  0  0  0  0  0
  141.6190   79.1980  222.9520 C   0  0  0  0  0  0  0  0  0  0  0  0
  142.0540   80.1040  223.9210 C   0  0  0  0  0  0  0  0  0  0  0  0
  142.1570   81.4600  223.5720 C   0  0  0  0  0  0  0  0  0  0  0  0
  141.8170   81.8820  222.2730 C   0  0  0  0  0  0  0  0  0  0  0  0
  141.3760   80.9510  221.3210 C   0  0  0  0  0  0  0  0  0  0  0  0
  141.2960   79.6050  221.6920 C   0  0  0  0  0  0  0  0  0  0  0  0
  140.8390   78.4520  220.8810 C   0  0  1  0  0  0  0  0  0  0  0  0
  141.6740   78.2990  219.6410 C   0  0  0  0  0  0  0  0  0  0  0  0
  142.0970   79.3220  218.7940 C   0  0  0  0  0  0  0  0  0  0  0  0
  142.8870   78.8290  217.8140 N   0  0  0  0  0  0  0  0  0  0  0  0
  142.9720   77.5070  218.0360 C   0  0  0  0  0  0  0  0  0  0  0  0
  143.7010   76.5740  217.2980 C   0  0  0  0  0  0  0  0  0  0  0  0
  143.6750   75.2330  217.7220 C   0  0  0  0  0  0  0  0  0  0  0  0
  142.9310   74.8580  218.8630 C   0  0  0  0  0  0  0  0  0  0  0  0
  142.2050   75.8220  219.5890 C   0  0  0  0  0  0  0  0  0  0  0  0
  142.2490   77.1440  219.1440 C   0  0  0  0  0  0  0  0  0  0  0  0
  137.4691   76.4615  222.8883 H   0  0  0  0  0  0  0  0  0  0  0  0
  138.8442   76.8578  223.9866 H   0  0  0  0  0  0  0  0  0  0  0  0
  138.9114   79.0645  224.6756 H   0  0  0  0  0  0  0  0  0  0  0  0
  138.6109   81.5000  224.2135 H   0  0  0  0  0  0  0  0  0  0  0  0
  137.7846   82.2572  221.9818 H   0  0  0  0  0  0  0  0  0  0  0  0
  137.2643   80.5803  220.2063 H   0  0  0  0  0  0  0  0  0  0  0  0
  137.5531   78.1453  220.6629 H   0  0  0  0  0  0  0  0  0  0  0  0
  140.6002   77.5418  223.8173 H   0  0  0  0  0  0  0  0  0  0  0  0
  142.3060   77.2337  223.4711 H   0  0  0  0  0  0  0  0  0  0  0  0
  142.3102   79.7632  224.9350 H   0  0  0  0  0  0  0  0  0  0  0  0
  142.5038   82.1935  224.3147 H   0  0  0  0  0  0  0  0  0  0  0  0
  141.8974   82.9454  222.0035 H   0  0  0  0  0  0  0  0  0  0  0  0
  141.0995   81.2722  220.3059 H   0  0  0  0  0  0  0  0  0  0  0  0
  139.7959   78.5842  220.5579 H   0  0  0  0  0  0  0  0  0  0  0  0
  141.8260   80.3821  218.9072 H   0  0  0  0  0  0  0  0  0  0  0  0
  143.3520   79.3730  217.0530 H   0  0  0  0  0  0  0  0  0  0  0  0
  144.2781   76.8776  216.4122 H   0  0  0  0  0  0  0  0  0  0  0  0
  144.2374   74.4716  217.1617 H   0  0  0  0  0  0  0  0  0  0  0  0
  142.9187   73.8067  219.1863 H   0  0  0  0  0  0  0  0  0  0  0  0
  141.6218   75.5418  220.4786 H   0  0  0  0  0  0  0  0  0  0  0  0
  1  2  2  0
  2  3  2  0
  2  4  1  0
  4  5  1  0
  5  6  2  0
  6  7  1  0
  7  8  2  0
  8  9  1  0
  9 10  2  0
  2 11  1  0
 11 12  1  0
 12 13  1  0
 13 14  2  0
 14 15  1  0
 15 16  2  0
 16 17  1  0
 17 18  2  0
 18 19  1  0
 19 20  1  0
 20 21  2  0
 21 22  1  0
 22 23  1  0
 23 24  2  0
 24 25  1  0
 25 26  2  0
 26 27  1  0
 27 28  2  0
 10  5  1  0
 19 11  1  0
 28 20  1  0
 18 13  1  0
 28 23  1  0
  4 29  1  0
  4 30  1  0
  6 31  1  0
  7 32  1  0
  8 33  1  0
  9 34  1  0
 10 35  1  0
 12 36  1  0
 12 37  1  0
 14 38  1  0
 15 39  1  0
 16 40  1  0
 17 41  1  0
 19 42  1  6
 21 43  1  0
 22 44  1  0
 24 45  1  0
 25 46  1  0
 26 47  1  0
 27 48  1  0
M  END
>  <meeko>  (8) 
{"free_energy": -7.57, "intermolecular_energy": -8.76, "internal_energy": -2.32, "cluster_size": 18, "cluster_id": 2, "rank_in_cluster": 13}

$$$$

     RDKit          3D

 48 52  0  0  0  0  0  0  0  0999 V2000
  139.5690   74.8320  222.2160 O   0  0  0  0  0  0  0  0  0  0  0  0
  139.3550   76.2560  221.7840 S   0  0  0  0  0  0  0  0  0  0  0  0
  138.7400   76.2680  220.4120 O   0  0  0  0  0  0  0  0  0  0  0  0
  138.2590   77.0560  222.9450 C   0  0  0  0  0  0  0  0  0  0  0  0
  138.2430   78.5410  222.7160 C   0  0  0  0  0  0  0  0  0  0  0  0
  137.8290   79.0630  221.4790 C   0  0  0  0  0  0  0  0  0  0  0  0
  137.7910   80.4460  221.2760 C   0  0  0  0  0  0  0  0  0  0  0  0
  138.1550   81.3160  222.3090 C   0  0  0  0  0  0  0  0  0  0  0  0
  138.5550   80.8040  223.5460 C   0  0  0  0  0  0  0  0  0  0  0  0
  138.5970   79.4220  223.7520 C   0  0  0  0  0  0  0  0  0  0  0  0
  140.8870   77.0930  221.7660 N   0  0  0  0  0  0  0  0  0  0  0  0
  141.2990   77.5050  223.1280 C   0  0  0  0  0  0  0  0  0  0  0  0
  141.6550   78.9340  223.0170 C   0  0  0  0  0  0  0  0  0  0  0  0
  142.1660   79.7740  224.0090 C   0  0  0  0  0  0  0  0  0  0  0  0
  142.4050   81.1200  223.6890 C   0  0  0  0  0  0  0  0  0  0  0  0
  142.1200   81.6000  222.3980 C   0  0  0  0  0  0  0  0  0  0  0  0
  141.5990   80.7360  221.4220 C   0  0  0  0  0  0  0  0  0  0  0  0
  141.3850   79.3970  221.7630 C   0  0  0  0  0  0  0  0  0  0  0  0
  140.8260   78.3110  220.9250 C   0  0  1  0  0  0  0  0  0  0  0  0
  141.6540   78.1030  219.6870 C   0  0  0  0  0  0  0  0  0  0  0  0
  142.0480   79.0840  218.7790 C   0  0  0  0  0  0  0  0  0  0  0  0
  142.8400   78.5510  217.8220 N   0  0  0  0  0  0  0  0  0  0  0  0
  142.9560   77.2450  218.1200 C   0  0  0  0  0  0  0  0  0  0  0  0
  143.6980   76.2860  217.4310 C   0  0  0  0  0  0  0  0  0  0  0  0
  143.7050   74.9730  217.9340 C   0  0  0  0  0  0  0  0  0  0  0  0
  142.9780   74.6500  219.1020 C   0  0  0  0  0  0  0  0  0  0  0  0
  142.2380   75.6400  219.7770 C   0  0  0  0  0  0  0  0  0  0  0  0
  142.2500   76.9330  219.2550 C   0  0  0  0  0  0  0  0  0  0  0  0
  137.2415   76.6587  222.8151 H   0  0  0  0  0  0  0  0  0  0  0  0
  138.6161   76.8573  223.9663 H   0  0  0  0  0  0  0  0  0  0  0  0
  137.5338   78.3815  220.6676 H   0  0  0  0  0  0  0  0  0  0  0  0
  137.4746   80.8501  220.3031 H   0  0  0  0  0  0  0  0  0  0  0  0
  138.1263   82.4037  222.1475 H   0  0  0  0  0  0  0  0  0  0  0  0
  138.8372   81.4893  224.3588 H   0  0  0  0  0  0  0  0  0  0  0  0
  138.9083   79.0227  224.7286 H   0  0  0  0  0  0  0  0  0  0  0  0
  140.4698   77.3694  223.8380 H   0  0  0  0  0  0  0  0  0  0  0  0
  142.1408   76.9023  223.4996 H   0  0  0  0  0  0  0  0  0  0  0  0
  142.3764   79.3898  225.0180 H   0  0  0  0  0  0  0  0  0  0  0  0
  142.8159   81.8004  224.4494 H   0  0  0  0  0  0  0  0  0  0  0  0
  142.3060   82.6560  222.1523 H   0  0  0  0  0  0  0  0  0  0  0  0
  141.3645   81.1039  220.4122 H   0  0  0  0  0  0  0  0  0  0  0  0
  139.8036   78.5508  220.5977 H   0  0  0  0  0  0  0  0  0  0  0  0
  141.7556   80.1430  218.8334 H   0  0  0  0  0  0  0  0  0  0  0  0
  143.2870   79.0580  217.0250 H   0  0  0  0  0  0  0  0  0  0  0  0
  144.2601   76.5485  216.5226 H   0  0  0  0  0  0  0  0  0  0  0  0
  144.2801   74.1921  217.4150 H   0  0  0  0  0  0  0  0  0  0  0  0
  142.9902   73.6193  219.4862 H   0  0  0  0  0  0  0  0  0  0  0  0
  141.6685   75.4009  220.6872 H   0  0  0  0  0  0  0  0  0  0  0  0
  1  2  2  0
  2  3  2  0
  2  4  1  0
  4  5  1  0
  5  6  2  0
  6  7  1  0
  7  8  2  0
  8  9  1  0
  9 10  2  0
  2 11  1  0
 11 12  1  0
 12 13  1  0
 13 14  2  0
 14 15  1  0
 15 16  2  0
 16 17  1  0
 17 18  2  0
 18 19  1  0
 19 20  1  0
 20 21  2  0
 21 22  1  0
 22 23  1  0
 23 24  2  0
 24 25  1  0
 25 26  2  0
 26 27  1  0
 27 28  2  0
 10  5  1  0
 19 11  1  0
 28 20  1  0
 18 13  1  0
 28 23  1  0
  4 29  1  0
  4 30  1  0
  6 31  1  0
  7 32  1  0
  8 33  1  0
  9 34  1  0
 10 35  1  0
 12 36  1  0
 12 37  1  0
 14 38  1  0
 15 39  1  0
 16 40  1  0
 17 41  1  0
 19 42  1  6
 21 43  1  0
 22 44  1  0
 24 45  1  0
 25 46  1  0
 26 47  1  0
 27 48  1  0
M  END
>  <meeko>  (9) 
{"free_energy": -7.48, "intermolecular_energy": -8.67, "internal_energy": -2.31, "cluster_size": 18, "cluster_id": 2, "rank_in_cluster": 18}

$$$$

     RDKit          3D

 48 52  0  0  0  0  0  0  0  0999 V2000
  139.8510   74.8570  222.2800 O   0  0  0  0  0  0  0  0  0  0  0  0
  139.5170   76.2400  221.7930 S   0  0  0  0  0  0  0  0  0  0  0  0
  138.9010   76.1450  220.4240 O   0  0  0  0  0  0  0  0  0  0  0  0
  138.3610   76.9920  222.9270 C   0  0  0  0  0  0  0  0  0  0  0  0
  138.2110   78.4570  222.6310 C   0  0  0  0  0  0  0  0  0  0  0  0
  137.7310   78.8820  221.3800 C   0  0  0  0  0  0  0  0  0  0  0  0
  137.5680   80.2460  221.1160 C   0  0  0  0  0  0  0  0  0  0  0  0
  137.8730   81.1920  222.1000 C   0  0  0  0  0  0  0  0  0  0  0  0
  138.3370   80.7750  223.3510 C   0  0  0  0  0  0  0  0  0  0  0  0
  138.5040   79.4130  223.6180 C   0  0  0  0  0  0  0  0  0  0  0  0
  140.9730   77.2000  221.7330 N   0  0  0  0  0  0  0  0  0  0  0  0
  141.3570   77.6930  223.0760 C   0  0  0  0  0  0  0  0  0  0  0  0
  141.5910   79.1420  222.9140 C   0  0  0  0  0  0  0  0  0  0  0  0
  142.0370   80.0550  223.8710 C   0  0  0  0  0  0  0  0  0  0  0  0
  142.1600   81.4050  223.5040 C   0  0  0  0  0  0  0  0  0  0  0  0
  141.8290   81.8140  222.1980 C   0  0  0  0  0  0  0  0  0  0  0  0
  141.3780   80.8760  221.2580 C   0  0  0  0  0  0  0  0  0  0  0  0
  141.2780   79.5360  221.6470 C   0  0  0  0  0  0  0  0  0  0  0  0
  140.8070   78.3790  220.8510 C   0  0  1  0  0  0  0  0  0  0  0  0
  141.6430   78.1970  219.6150 C   0  0  0  0  0  0  0  0  0  0  0  0
  142.0770   79.2020  218.7520 C   0  0  0  0  0  0  0  0  0  0  0  0
  142.8640   78.6850  217.7830 N   0  0  0  0  0  0  0  0  0  0  0  0
  142.9370   77.3660  218.0270 C   0  0  0  0  0  0  0  0  0  0  0  0
  143.6580   76.4140  217.3060 C   0  0  0  0  0  0  0  0  0  0  0  0
  143.6190   75.0810  217.7530 C   0  0  0  0  0  0  0  0  0  0  0  0
  142.8680   74.7320  218.8980 C   0  0  0  0  0  0  0  0  0  0  0  0
  142.1510   75.7150  219.6070 C   0  0  0  0  0  0  0  0  0  0  0  0
  142.2080   77.0280  219.1390 C   0  0  0  0  0  0  0  0  0  0  0  0
  137.3823   76.5001  222.8255 H   0  0  0  0  0  0  0  0  0  0  0  0
  138.7405   76.8733  223.9526 H   0  0  0  0  0  0  0  0  0  0  0  0
  137.4829   78.1401  220.6067 H   0  0  0  0  0  0  0  0  0  0  0  0
  137.1994   80.5750  220.1332 H   0  0  0  0  0  0  0  0  0  0  0  0
  137.7477   82.2644  221.8895 H   0  0  0  0  0  0  0  0  0  0  0  0
  138.5710   81.5195  224.1262 H   0  0  0  0  0  0  0  0  0  0  0  0
  138.8662   79.0885  224.6047 H   0  0  0  0  0  0  0  0  0  0  0  0
  140.5464   77.5131  223.7975 H   0  0  0  0  0  0  0  0  0  0  0  0
  142.2492   77.1766  223.4599 H   0  0  0  0  0  0  0  0  0  0  0  0
  142.2866   79.7244  224.8900 H   0  0  0  0  0  0  0  0  0  0  0  0
  142.5153   82.1436  224.2376 H   0  0  0  0  0  0  0  0  0  0  0  0
  141.9244   82.8724  221.9141 H   0  0  0  0  0  0  0  0  0  0  0  0
  141.1090   81.1870  220.2377 H   0  0  0  0  0  0  0  0  0  0  0  0
  139.7667   78.5221  220.5235 H   0  0  0  0  0  0  0  0  0  0  0  0
  141.8155   80.2663  218.8466 H   0  0  0  0  0  0  0  0  0  0  0  0
  143.3360   79.2120  217.0130 H   0  0  0  0  0  0  0  0  0  0  0  0
  144.2389   76.6970  216.4158 H   0  0  0  0  0  0  0  0  0  0  0  0
  144.1767   74.3052  217.2078 H   0  0  0  0  0  0  0  0  0  0  0  0
  142.8433   73.6860  219.2376 H   0  0  0  0  0  0  0  0  0  0  0  0
  141.5649   75.4559  220.5010 H   0  0  0  0  0  0  0  0  0  0  0  0
  1  2  2  0
  2  3  2  0
  2  4  1  0
  4  5  1  0
  5  6  2  0
  6  7  1  0
  7  8  2  0
  8  9  1  0
  9 10  2  0
  2 11  1  0
 11 12  1  0
 12 13  1  0
 13 14  2  0
 14 15  1  0
 15 16  2  0
 16 17  1  0
 17 18  2  0
 18 19  1  0
 19 20  1  0
 20 21  2  0
 21 22  1  0
 22 23  1  0
 23 24  2  0
 24 25  1  0
 25 26  2  0
 26 27  1  0
 27 28  2  0
 10  5  1  0
 19 11  1  0
 28 20  1  0
 18 13  1  0
 28 23  1  0
  4 29  1  0
  4 30  1  0
  6 31  1  0
  7 32  1  0
  8 33  1  0
  9 34  1  0
 10 35  1  0
 12 36  1  0
 12 37  1  0
 14 38  1  0
 15 39  1  0
 16 40  1  0
 17 41  1  0
 19 42  1  6
 21 43  1  0
 22 44  1  0
 24 45  1  0
 25 46  1  0
 26 47  1  0
 27 48  1  0
M  END
>  <meeko>  (10) 
{"free_energy": -7.54, "intermolecular_energy": -8.73, "internal_energy": -2.32, "cluster_size": 18, "cluster_id": 2, "rank_in_cluster": 16}

$$$$

     RDKit          3D

 48 52  0  0  0  0  0  0  0  0999 V2000
  138.8650   75.9360  222.2010 O   0  0  0  0  0  0  0  0  0  0  0  0
  139.9240   76.8900  221.7210 S   0  0  0  0  0  0  0  0  0  0  0  0
  139.2730   78.1800  221.3050 O   0  0  0  0  0  0  0  0  0  0  0  0
  141.0770   77.1940  223.0500 C   0  0  0  0  0  0  0  0  0  0  0  0
  141.3530   78.6650  223.1810 C   0  0  0  0  0  0  0  0  0  0  0  0
  140.3130   79.5570  223.4900 C   0  0  0  0  0  0  0  0  0  0  0  0
  140.5770   80.9230  223.6360 C   0  0  0  0  0  0  0  0  0  0  0  0
  141.8810   81.4050  223.4850 C   0  0  0  0  0  0  0  0  0  0  0  0
  142.9230   80.5210  223.1910 C   0  0  0  0  0  0  0  0  0  0  0  0
  142.6630   79.1560  223.0420 C   0  0  0  0  0  0  0  0  0  0  0  0
  140.7740   76.1810  220.3710 N   0  0  0  0  0  0  0  0  0  0  0  0
  140.6930   74.7020  220.3930 C   0  0  0  0  0  0  0  0  0  0  0  0
  142.0820   74.2280  220.2240 C   0  0  0  0  0  0  0  0  0  0  0  0
  142.5360   72.9130  220.1130 C   0  0  0  0  0  0  0  0  0  0  0  0
  143.9170   72.6880  219.9910 C   0  0  0  0  0  0  0  0  0  0  0  0
  144.8110   73.7750  219.9900 C   0  0  0  0  0  0  0  0  0  0  0  0
  144.3280   75.0870  220.1100 C   0  0  0  0  0  0  0  0  0  0  0  0
  142.9480   75.2820  220.2170 C   0  0  0  0  0  0  0  0  0  0  0  0
  142.2070   76.5550  220.3790 C   0  0  1  0  0  0  0  0  0  0  0  0
  142.4830   77.4900  219.2340 C   0  0  0  0  0  0  0  0  0  0  0  0
  143.0100   77.1450  217.9900 C   0  0  0  0  0  0  0  0  0  0  0  0
  143.0610   78.2270  217.1830 N   0  0  0  0  0  0  0  0  0  0  0  0
  142.5660   79.2510  217.9000 C   0  0  0  0  0  0  0  0  0  0  0  0
  142.3950   80.5690  217.4790 C   0  0  0  0  0  0  0  0  0  0  0  0
  141.8290   81.4820  218.3870 C   0  0  0  0  0  0  0  0  0  0  0  0
  141.4500   81.0610  219.6820 C   0  0  0  0  0  0  0  0  0  0  0  0
  141.6340   79.7230  220.0780 C   0  0  0  0  0  0  0  0  0  0  0  0
  142.1980   78.8400  219.1560 C   0  0  0  0  0  0  0  0  0  0  0  0
  140.6498   76.8205  223.9924 H   0  0  0  0  0  0  0  0  0  0  0  0
  142.0204   76.6734  222.8286 H   0  0  0  0  0  0  0  0  0  0  0  0
  139.2875   79.1802  223.6176 H   0  0  0  0  0  0  0  0  0  0  0  0
  139.7578   81.6189  223.8699 H   0  0  0  0  0  0  0  0  0  0  0  0
  142.0867   82.4797  223.5976 H   0  0  0  0  0  0  0  0  0  0  0  0
  143.9492   80.9003  223.0767 H   0  0  0  0  0  0  0  0  0  0  0  0
  143.4866   78.4630  222.8151 H   0  0  0  0  0  0  0  0  0  0  0  0
  140.2820   74.3537  221.3521 H   0  0  0  0  0  0  0  0  0  0  0  0
  140.0317   74.3177  219.6024 H   0  0  0  0  0  0  0  0  0  0  0  0
  141.8279   72.0713  220.1209 H   0  0  0  0  0  0  0  0  0  0  0  0
  144.3002   71.6613  219.8961 H   0  0  0  0  0  0  0  0  0  0  0  0
  145.8921   73.5955  219.8948 H   0  0  0  0  0  0  0  0  0  0  0  0
  145.0195   75.9424  220.1196 H   0  0  0  0  0  0  0  0  0  0  0  0
  142.5065   77.0715  221.3029 H   0  0  0  0  0  0  0  0  0  0  0  0
  143.3380   76.1342  217.7059 H   0  0  0  0  0  0  0  0  0  0  0  0
  143.3980   78.2540  216.1940 H   0  0  0  0  0  0  0  0  0  0  0  0
  142.6934   80.8850  216.4685 H   0  0  0  0  0  0  0  0  0  0  0  0
  141.6804   82.5300  218.0875 H   0  0  0  0  0  0  0  0  0  0  0  0
  141.0086   81.7833  220.3845 H   0  0  0  0  0  0  0  0  0  0  0  0
  141.3424   79.3838  221.0829 H   0  0  0  0  0  0  0  0  0  0  0  0
  1  2  2  0
  2  3  2  0
  2  4  1  0
  4  5  1  0
  5  6  2  0
  6  7  1  0
  7  8  2  0
  8  9  1  0
  9 10  2  0
  2 11  1  0
 11 12  1  0
 12 13  1  0
 13 14  2  0
 14 15  1  0
 15 16  2  0
 16 17  1  0
 17 18  2  0
 18 19  1  0
 19 20  1  0
 20 21  2  0
 21 22  1  0
 22 23  1  0
 23 24  2  0
 24 25  1  0
 25 26  2  0
 26 27  1  0
 27 28  2  0
 10  5  1  0
 19 11  1  0
 28 20  1  0
 18 13  1  0
 28 23  1  0
  4 29  1  0
  4 30  1  0
  6 31  1  0
  7 32  1  0
  8 33  1  0
  9 34  1  0
 10 35  1  0
 12 36  1  0
 12 37  1  0
 14 38  1  0
 15 39  1  0
 16 40  1  0
 17 41  1  0
 19 42  1  1
 21 43  1  0
 22 44  1  0
 24 45  1  0
 25 46  1  0
 26 47  1  0
 27 48  1  0
M  END
>  <meeko>  (11) 
{"free_energy": -7.74, "intermolecular_energy": -8.93, "internal_energy": -2.14, "cluster_size": 18, "cluster_id": 2, "rank_in_cluster": 1}

$$$$

     RDKit          3D

 48 52  0  0  0  0  0  0  0  0999 V2000
  139.9140   74.8600  222.2540 O   0  0  0  0  0  0  0  0  0  0  0  0
  139.5670   76.2470  221.7890 S   0  0  0  0  0  0  0  0  0  0  0  0
  138.9520   76.1680  220.4190 O   0  0  0  0  0  0  0  0  0  0  0  0
  138.4040   76.9700  222.9340 C   0  0  0  0  0  0  0  0  0  0  0  0
  138.2420   78.4390  222.6630 C   0  0  0  0  0  0  0  0  0  0  0  0
  137.7550   78.8810  221.4210 C   0  0  0  0  0  0  0  0  0  0  0  0
  137.5820   80.2470  221.1800 C   0  0  0  0  0  0  0  0  0  0  0  0
  137.8820   81.1790  222.1780 C   0  0  0  0  0  0  0  0  0  0  0  0
  138.3540   80.7450  223.4210 C   0  0  0  0  0  0  0  0  0  0  0  0
  138.5320   79.3810  223.6650 C   0  0  0  0  0  0  0  0  0  0  0  0
  141.0150   77.2220  221.7440 N   0  0  0  0  0  0  0  0  0  0  0  0
  141.4040   77.6830  223.0970 C   0  0  0  0  0  0  0  0  0  0  0  0
  141.6240   79.1380  222.9710 C   0  0  0  0  0  0  0  0  0  0  0  0
  142.0670   80.0300  223.9490 C   0  0  0  0  0  0  0  0  0  0  0  0
  142.1760   81.3890  223.6160 C   0  0  0  0  0  0  0  0  0  0  0  0
  141.8320   81.8300  222.3240 C   0  0  0  0  0  0  0  0  0  0  0  0
  141.3820   80.9120  221.3620 C   0  0  0  0  0  0  0  0  0  0  0  0
  141.2970   79.5620  221.7170 C   0  0  0  0  0  0  0  0  0  0  0  0
  140.8310   78.4220  220.8940 C   0  0  1  0  0  0  0  0  0  0  0  0
  141.6600   78.2800  219.6480 C   0  0  0  0  0  0  0  0  0  0  0  0
  142.0730   79.3100  218.8050 C   0  0  0  0  0  0  0  0  0  0  0  0
  142.8590   78.8260  217.8180 N   0  0  0  0  0  0  0  0  0  0  0  0
  142.9530   77.5030  218.0310 C   0  0  0  0  0  0  0  0  0  0  0  0
  143.6820   76.5780  217.2840 C   0  0  0  0  0  0  0  0  0  0  0  0
  143.6660   75.2360  217.7010 C   0  0  0  0  0  0  0  0  0  0  0  0
  142.9300   74.8500  218.8440 C   0  0  0  0  0  0  0  0  0  0  0  0
  142.2040   75.8060  219.5800 C   0  0  0  0  0  0  0  0  0  0  0  0
  142.2380   77.1300  219.1420 C   0  0  0  0  0  0  0  0  0  0  0  0
  137.4296   76.4719  222.8230 H   0  0  0  0  0  0  0  0  0  0  0  0
  138.7836   76.8371  223.9578 H   0  0  0  0  0  0  0  0  0  0  0  0
  137.5093   78.1501  220.6365 H   0  0  0  0  0  0  0  0  0  0  0  0
  137.2091   80.5893  220.2033 H   0  0  0  0  0  0  0  0  0  0  0  0
  137.7468   82.2536  221.9856 H   0  0  0  0  0  0  0  0  0  0  0  0
  138.5853   81.4785  224.2074 H   0  0  0  0  0  0  0  0  0  0  0  0
  138.9004   79.0430  224.6448 H   0  0  0  0  0  0  0  0  0  0  0  0
  140.6001   77.4770  223.8190 H   0  0  0  0  0  0  0  0  0  0  0  0
  142.3032   77.1647  223.4615 H   0  0  0  0  0  0  0  0  0  0  0  0
  142.3249   79.6758  224.9580 H   0  0  0  0  0  0  0  0  0  0  0  0
  142.5309   82.1111  224.3660 H   0  0  0  0  0  0  0  0  0  0  0  0
  141.9160   82.8964  222.0677 H   0  0  0  0  0  0  0  0  0  0  0  0
  141.1027   81.2469  220.3521 H   0  0  0  0  0  0  0  0  0  0  0  0
  139.7871   78.5638  220.5774 H   0  0  0  0  0  0  0  0  0  0  0  0
  141.7979   80.3681  218.9260 H   0  0  0  0  0  0  0  0  0  0  0  0
  143.3170   79.3770  217.0560 H   0  0  0  0  0  0  0  0  0  0  0  0
  144.2518   76.8892  216.3960 H   0  0  0  0  0  0  0  0  0  0  0  0
  144.2302   74.4810  217.1339 H   0  0  0  0  0  0  0  0  0  0  0  0
  142.9242   73.7965  219.1606 H   0  0  0  0  0  0  0  0  0  0  0  0
  141.6283   75.5180  220.4720 H   0  0  0  0  0  0  0  0  0  0  0  0
  1  2  2  0
  2  3  2  0
  2  4  1  0
  4  5  1  0
  5  6  2  0
  6  7  1  0
  7  8  2  0
  8  9  1  0
  9 10  2  0
  2 11  1  0
 11 12  1  0
 12 13  1  0
 13 14  2  0
 14 15  1  0
 15 16  2  0
 16 17  1  0
 17 18  2  0
 18 19  1  0
 19 20  1  0
 20 21  2  0
 21 22  1  0
 22 23  1  0
 23 24  2  0
 24 25  1  0
 25 26  2  0
 26 27  1  0
 27 28  2  0
 10  5  1  0
 19 11  1  0
 28 20  1  0
 18 13  1  0
 28 23  1  0
  4 29  1  0
  4 30  1  0
  6 31  1  0
  7 32  1  0
  8 33  1  0
  9 34  1  0
 10 35  1  0
 12 36  1  0
 12 37  1  0
 14 38  1  0
 15 39  1  0
 16 40  1  0
 17 41  1  0
 19 42  1  6
 21 43  1  0
 22 44  1  0
 24 45  1  0
 25 46  1  0
 26 47  1  0
 27 48  1  0
M  END
>  <meeko>  (12) 
{"free_energy": -7.57, "intermolecular_energy": -8.76, "internal_energy": -2.31, "cluster_size": 18, "cluster_id": 2, "rank_in_cluster": 10}

$$$$

     RDKit          3D

 48 52  0  0  0  0  0  0  0  0999 V2000
  139.9500   74.9270  222.2560 O   0  0  0  0  0  0  0  0  0  0  0  0
  139.5890   76.3150  221.8050 S   0  0  0  0  0  0  0  0  0  0  0  0
  138.9540   76.2410  220.4430 O   0  0  0  0  0  0  0  0  0  0  0  0
  138.4400   77.0250  222.9720 C   0  0  0  0  0  0  0  0  0  0  0  0
  138.2740   78.4970  222.7170 C   0  0  0  0  0  0  0  0  0  0  0  0
  137.7800   78.9510  221.4830 C   0  0  0  0  0  0  0  0  0  0  0  0
  137.6030   80.3200  221.2570 C   0  0  0  0  0  0  0  0  0  0  0  0
  137.9050   81.2410  222.2640 C   0  0  0  0  0  0  0  0  0  0  0  0
  138.3830   80.7950  223.5000 C   0  0  0  0  0  0  0  0  0  0  0  0
  138.5650   79.4280  223.7280 C   0  0  0  0  0  0  0  0  0  0  0  0
  141.0310   77.2970  221.7430 N   0  0  0  0  0  0  0  0  0  0  0  0
  141.4160   77.7840  223.0890 C   0  0  0  0  0  0  0  0  0  0  0  0
  141.6280   79.2380  222.9370 C   0  0  0  0  0  0  0  0  0  0  0  0
  142.0650   80.1500  223.8990 C   0  0  0  0  0  0  0  0  0  0  0  0
  142.1660   81.5040  223.5420 C   0  0  0  0  0  0  0  0  0  0  0  0
  141.8220   81.9190  222.2420 C   0  0  0  0  0  0  0  0  0  0  0  0
  141.3780   80.9820  221.2960 C   0  0  0  0  0  0  0  0  0  0  0  0
  141.3010   79.6380  221.6750 C   0  0  0  0  0  0  0  0  0  0  0  0
  140.8410   78.4800  220.8720 C   0  0  1  0  0  0  0  0  0  0  0  0
  141.6730   78.3210  219.6300 C   0  0  0  0  0  0  0  0  0  0  0  0
  142.1120   79.3430  218.7890 C   0  0  0  0  0  0  0  0  0  0  0  0
  142.8920   78.8420  217.8060 N   0  0  0  0  0  0  0  0  0  0  0  0
  142.9550   77.5170  218.0190 C   0  0  0  0  0  0  0  0  0  0  0  0
  143.6670   76.5770  217.2740 C   0  0  0  0  0  0  0  0  0  0  0  0
  143.6200   75.2340  217.6900 C   0  0  0  0  0  0  0  0  0  0  0  0
  142.8700   74.8640  218.8290 C   0  0  0  0  0  0  0  0  0  0  0  0
  142.1620   75.8360  219.5620 C   0  0  0  0  0  0  0  0  0  0  0  0
  142.2280   77.1590  219.1260 C   0  0  0  0  0  0  0  0  0  0  0  0
  137.4646   76.5272  222.8683 H   0  0  0  0  0  0  0  0  0  0  0  0
  138.8321   76.8819  223.9897 H   0  0  0  0  0  0  0  0  0  0  0  0
  137.5316   78.2279  220.6921 H   0  0  0  0  0  0  0  0  0  0  0  0
  137.2257   80.6722  220.2856 H   0  0  0  0  0  0  0  0  0  0  0  0
  137.7666   82.3173  222.0841 H   0  0  0  0  0  0  0  0  0  0  0  0
  138.6160   81.5204  224.2934 H   0  0  0  0  0  0  0  0  0  0  0  0
  138.9375   79.0799  224.7027 H   0  0  0  0  0  0  0  0  0  0  0  0
  140.6124   77.5864  223.8137 H   0  0  0  0  0  0  0  0  0  0  0  0
  142.3174   77.2772  223.4639 H   0  0  0  0  0  0  0  0  0  0  0  0
  142.3245   79.8153  224.9142 H   0  0  0  0  0  0  0  0  0  0  0  0
  142.5146   82.2418  224.2797 H   0  0  0  0  0  0  0  0  0  0  0  0
  141.9013   82.9810  221.9664 H   0  0  0  0  0  0  0  0  0  0  0  0
  141.0972   81.2974  220.2803 H   0  0  0  0  0  0  0  0  0  0  0  0
  139.7965   78.6097  220.5524 H   0  0  0  0  0  0  0  0  0  0  0  0
  141.8590   80.4068  218.9089 H   0  0  0  0  0  0  0  0  0  0  0  0
  143.3650   79.3830  217.0470 H   0  0  0  0  0  0  0  0  0  0  0  0
  144.2472   76.8765  216.3888 H   0  0  0  0  0  0  0  0  0  0  0  0
  144.1704   74.4672  217.1252 H   0  0  0  0  0  0  0  0  0  0  0  0
  142.8390   73.8108  219.1449 H   0  0  0  0  0  0  0  0  0  0  0  0
  141.5753   75.5603  220.4507 H   0  0  0  0  0  0  0  0  0  0  0  0
  1  2  2  0
  2  3  2  0
  2  4  1  0
  4  5  1  0
  5  6  2  0
  6  7  1  0
  7  8  2  0
  8  9  1  0
  9 10  2  0
  2 11  1  0
 11 12  1  0
 12 13  1  0
 13 14  2  0
 14 15  1  0
 15 16  2  0
 16 17  1  0
 17 18  2  0
 18 19  1  0
 19 20  1  0
 20 21  2  0
 21 22  1  0
 22 23  1  0
 23 24  2  0
 24 25  1  0
 25 26  2  0
 26 27  1  0
 27 28  2  0
 10  5  1  0
 19 11  1  0
 28 20  1  0
 18 13  1  0
 28 23  1  0
  4 29  1  0
  4 30  1  0
  6 31  1  0
  7 32  1  0
  8 33  1  0
  9 34  1  0
 10 35  1  0
 12 36  1  0
 12 37  1  0
 14 38  1  0
 15 39  1  0
 16 40  1  0
 17 41  1  0
 19 42  1  6
 21 43  1  0
 22 44  1  0
 24 45  1  0
 25 46  1  0
 26 47  1  0
 27 48  1  0
M  END
>  <meeko>  (13) 
{"free_energy": -7.59, "intermolecular_energy": -8.78, "internal_energy": -2.31, "cluster_size": 18, "cluster_id": 2, "rank_in_cluster": 3}

$$$$

     RDKit          3D

 48 52  0  0  0  0  0  0  0  0999 V2000
  143.6930   77.1380  218.9450 O   0  0  0  0  0  0  0  0  0  0  0  0
  142.2490   76.8050  218.6890 S   0  0  0  0  0  0  0  0  0  0  0  0
  141.9100   77.1430  217.2630 O   0  0  0  0  0  0  0  0  0  0  0  0
  141.9960   75.0610  218.9750 C   0  0  0  0  0  0  0  0  0  0  0  0
  143.3020   74.3830  219.2800 C   0  0  0  0  0  0  0  0  0  0  0  0
  143.9830   73.6720  218.2780 C   0  0  0  0  0  0  0  0  0  0  0  0
  145.2100   73.0630  218.5570 C   0  0  0  0  0  0  0  0  0  0  0  0
  145.7700   73.1680  219.8340 C   0  0  0  0  0  0  0  0  0  0  0  0
  145.1050   73.8850  220.8330 C   0  0  0  0  0  0  0  0  0  0  0  0
  143.8760   74.4930  220.5580 C   0  0  0  0  0  0  0  0  0  0  0  0
  141.2410   77.7210  219.7800 N   0  0  0  0  0  0  0  0  0  0  0  0
  141.5430   79.1700  219.7150 C   0  0  0  0  0  0  0  0  0  0  0  0
  141.7220   79.6010  221.1160 C   0  0  0  0  0  0  0  0  0  0  0  0
  141.9590   80.8900  221.5970 C   0  0  0  0  0  0  0  0  0  0  0  0
  142.1310   81.0670  222.9800 C   0  0  0  0  0  0  0  0  0  0  0  0
  142.0730   79.9600  223.8460 C   0  0  0  0  0  0  0  0  0  0  0  0
  141.8410   78.6740  223.3340 C   0  0  0  0  0  0  0  0  0  0  0  0
  141.6590   78.5290  221.9560 C   0  0  0  0  0  0  0  0  0  0  0  0
  141.4290   77.2850  221.1840 C   0  0  1  0  0  0  0  0  0  0  0  0
  140.1890   76.5780  221.6550 C   0  0  0  0  0  0  0  0  0  0  0  0
  140.0460   75.2080  221.8720 C   0  0  0  0  0  0  0  0  0  0  0  0
  138.8150   74.9330  222.3570 N   0  0  0  0  0  0  0  0  0  0  0  0
  138.1800   76.1130  222.4550 C   0  0  0  0  0  0  0  0  0  0  0  0
  136.8890   76.3390  222.9310 C   0  0  0  0  0  0  0  0  0  0  0  0
  136.4260   77.6660  222.9750 C   0  0  0  0  0  0  0  0  0  0  0  0
  137.2550   78.7280  222.5470 C   0  0  0  0  0  0  0  0  0  0  0  0
  138.5550   78.4690  222.0720 C   0  0  0  0  0  0  0  0  0  0  0  0
  138.9870   77.1430  222.0400 C   0  0  0  0  0  0  0  0  0  0  0  0
  141.3122   74.9292  219.8265 H   0  0  0  0  0  0  0  0  0  0  0  0
  141.5644   74.6107  218.0689 H   0  0  0  0  0  0  0  0  0  0  0  0
  143.5492   73.5941  217.2702 H   0  0  0  0  0  0  0  0  0  0  0  0
  145.7355   72.5006  217.7712 H   0  0  0  0  0  0  0  0  0  0  0  0
  146.7344   72.6861  220.0526 H   0  0  0  0  0  0  0  0  0  0  0  0
  145.5487   73.9710  221.8359 H   0  0  0  0  0  0  0  0  0  0  0  0
  143.3567   75.0595  221.3450 H   0  0  0  0  0  0  0  0  0  0  0  0
  142.4635   79.3450  219.1387 H   0  0  0  0  0  0  0  0  0  0  0  0
  140.7396   79.7314  219.2157 H   0  0  0  0  0  0  0  0  0  0  0  0
  142.0099   81.7470  220.9092 H   0  0  0  0  0  0  0  0  0  0  0  0
  142.3114   82.0731  223.3865 H   0  0  0  0  0  0  0  0  0  0  0  0
  142.2099   80.1027  224.9281 H   0  0  0  0  0  0  0  0  0  0  0  0
  141.8033   77.8007  224.0017 H   0  0  0  0  0  0  0  0  0  0  0  0
  142.2694   76.5854  221.3033 H   0  0  0  0  0  0  0  0  0  0  0  0
  140.8254   74.4569  221.6760 H   0  0  0  0  0  0  0  0  0  0  0  0
  138.4440   73.9920  222.6210 H   0  0  0  0  0  0  0  0  0  0  0  0
  136.2525   75.5051  223.2618 H   0  0  0  0  0  0  0  0  0  0  0  0
  135.4122   77.8791  223.3449 H   0  0  0  0  0  0  0  0  0  0  0  0
  136.8825   79.7623  222.5852 H   0  0  0  0  0  0  0  0  0  0  0  0
  139.2096   79.2869  221.7366 H   0  0  0  0  0  0  0  0  0  0  0  0
  1  2  2  0
  2  3  2  0
  2  4  1  0
  4  5  1  0
  5  6  2  0
  6  7  1  0
  7  8  2  0
  8  9  1  0
  9 10  2  0
  2 11  1  0
 11 12  1  0
 12 13  1  0
 13 14  2  0
 14 15  1  0
 15 16  2  0
 16 17  1  0
 17 18  2  0
 18 19  1  0
 19 20  1  0
 20 21  2  0
 21 22  1  0
 22 23  1  0
 23 24  2  0
 24 25  1  0
 25 26  2  0
 26 27  1  0
 27 28  2  0
 10  5  1  0
 19 11  1  0
 28 20  1  0
 18 13  1  0
 28 23  1  0
  4 29  1  0
  4 30  1  0
  6 31  1  0
  7 32  1  0
  8 33  1  0
  9 34  1  0
 10 35  1  0
 12 36  1  0
 12 37  1  0
 14 38  1  0
 15 39  1  0
 16 40  1  0
 17 41  1  0
 19 42  1  6
 21 43  1  0
 22 44  1  0
 24 45  1  0
 25 46  1  0
 26 47  1  0
 27 48  1  0
M  END
>  <meeko>  (14) 
{"free_energy": -7.77, "intermolecular_energy": -8.96, "internal_energy": -1.81, "cluster_size": 1, "cluster_id": 1, "rank_in_cluster": 1}

$$$$

     RDKit          3D

 48 52  0  0  0  0  0  0  0  0999 V2000
  142.3190   81.5720  224.1290 O   0  0  0  0  0  0  0  0  0  0  0  0
  142.5940   80.5130  223.0980 S   0  0  0  0  0  0  0  0  0  0  0  0
  144.0650   80.2020  223.0900 O   0  0  0  0  0  0  0  0  0  0  0  0
  141.6660   79.0450  223.5100 C   0  0  0  0  0  0  0  0  0  0  0  0
  140.1900   79.3260  223.4710 C   0  0  0  0  0  0  0  0  0  0  0  0
  139.6960   80.5790  223.8720 C   0  0  0  0  0  0  0  0  0  0  0  0
  138.3250   80.8470  223.8110 C   0  0  0  0  0  0  0  0  0  0  0  0
  137.4410   79.8710  223.3400 C   0  0  0  0  0  0  0  0  0  0  0  0
  137.9270   78.6280  222.9270 C   0  0  0  0  0  0  0  0  0  0  0  0
  139.2960   78.3550  222.9890 C   0  0  0  0  0  0  0  0  0  0  0  0
  142.0930   81.0900  221.5280 N   0  0  0  0  0  0  0  0  0  0  0  0
  141.4440   82.4190  221.6170 C   0  0  0  0  0  0  0  0  0  0  0  0
  140.1800   82.2930  220.8640 C   0  0  0  0  0  0  0  0  0  0  0  0
  139.2350   83.2850  220.5950 C   0  0  0  0  0  0  0  0  0  0  0  0
  138.0790   82.9320  219.8800 C   0  0  0  0  0  0  0  0  0  0  0  0
  137.8860   81.6030  219.4590 C   0  0  0  0  0  0  0  0  0  0  0  0
  138.8490   80.6250  219.7500 C   0  0  0  0  0  0  0  0  0  0  0  0
  139.9970   81.0060  220.4500 C   0  0  0  0  0  0  0  0  0  0  0  0
  141.1300   80.1590  220.8930 C   0  0  1  0  0  0  0  0  0  0  0  0
  141.7890   79.4840  219.7230 C   0  0  0  0  0  0  0  0  0  0  0  0
  142.2730   80.1050  218.5720 C   0  0  0  0  0  0  0  0  0  0  0  0
  142.8630   79.2000  217.7600 N   0  0  0  0  0  0  0  0  0  0  0  0
  142.7620   78.0160  218.3870 C   0  0  0  0  0  0  0  0  0  0  0  0
  143.2490   76.7850  217.9460 C   0  0  0  0  0  0  0  0  0  0  0  0
  143.0590   75.6670  218.7770 C   0  0  0  0  0  0  0  0  0  0  0  0
  142.3940   75.8010  220.0170 C   0  0  0  0  0  0  0  0  0  0  0  0
  141.9140   77.0570  220.4360 C   0  0  0  0  0  0  0  0  0  0  0  0
  142.1170   78.1480  219.5910 C   0  0  0  0  0  0  0  0  0  0  0  0
  141.9026   78.2521  222.7852 H   0  0  0  0  0  0  0  0  0  0  0  0
  141.9401   78.7248  224.5260 H   0  0  0  0  0  0  0  0  0  0  0  0
  140.3900   81.3514  224.2350 H   0  0  0  0  0  0  0  0  0  0  0  0
  137.9415   81.8262  224.1337 H   0  0  0  0  0  0  0  0  0  0  0  0
  136.3624   80.0822  223.2947 H   0  0  0  0  0  0  0  0  0  0  0  0
  137.2309   77.8630  222.5525 H   0  0  0  0  0  0  0  0  0  0  0  0
  139.6752   77.3765  222.6593 H   0  0  0  0  0  0  0  0  0  0  0  0
  141.2418   82.6784  222.6667 H   0  0  0  0  0  0  0  0  0  0  0  0
  142.0848   83.2139  221.2078 H   0  0  0  0  0  0  0  0  0  0  0  0
  139.3923   84.3192  220.9353 H   0  0  0  0  0  0  0  0  0  0  0  0
  137.3224   83.6962  219.6484 H   0  0  0  0  0  0  0  0  0  0  0  0
  136.9783   81.3305  218.9006 H   0  0  0  0  0  0  0  0  0  0  0  0
  138.7036   79.5814  219.4341 H   0  0  0  0  0  0  0  0  0  0  0  0
  140.7887   79.3681  221.5771 H   0  0  0  0  0  0  0  0  0  0  0  0
  142.1867   81.1800  218.3555 H   0  0  0  0  0  0  0  0  0  0  0  0
  143.3210   79.3910  216.8400 H   0  0  0  0  0  0  0  0  0  0  0  0
  143.7651   76.6923  216.9790 H   0  0  0  0  0  0  0  0  0  0  0  0
  143.4304   74.6813  218.4600 H   0  0  0  0  0  0  0  0  0  0  0  0
  142.2505   74.9191  220.6586 H   0  0  0  0  0  0  0  0  0  0  0  0
  141.3955   77.1739  221.3991 H   0  0  0  0  0  0  0  0  0  0  0  0
  1  2  2  0
  2  3  2  0
  2  4  1  0
  4  5  1  0
  5  6  2  0
  6  7  1  0
  7  8  2  0
  8  9  1  0
  9 10  2  0
  2 11  1  0
 11 12  1  0
 12 13  1  0
 13 14  2  0
 14 15  1  0
 15 16  2  0
 16 17  1  0
 17 18  2  0
 18 19  1  0
 19 20  1  0
 20 21  2  0
 21 22  1  0
 22 23  1  0
 23 24  2  0
 24 25  1  0
 25 26  2  0
 26 27  1  0
 27 28  2  0
 10  5  1  0
 19 11  1  0
 28 20  1  0
 18 13  1  0
 28 23  1  0
  4 29  1  0
  4 30  1  0
  6 31  1  0
  7 32  1  0
  8 33  1  0
  9 34  1  0
 10 35  1  0
 12 36  1  0
 12 37  1  0
 14 38  1  0
 15 39  1  0
 16 40  1  0
 17 41  1  0
 19 42  1  1
 21 43  1  0
 22 44  1  0
 24 45  1  0
 25 46  1  0
 26 47  1  0
 27 48  1  0
M  END
>  <meeko>  (15) 
{"free_energy": -7.45, "intermolecular_energy": -8.65, "internal_energy": -2.32, "cluster_size": 1, "cluster_id": 3, "rank_in_cluster": 1}

$$$$

     RDKit          3D

 48 52  0  0  0  0  0  0  0  0999 V2000
  139.6840   74.8410  222.2320 O   0  0  0  0  0  0  0  0  0  0  0  0
  139.4270   76.2510  221.7790 S   0  0  0  0  0  0  0  0  0  0  0  0
  138.8050   76.2250  220.4100 O   0  0  0  0  0  0  0  0  0  0  0  0
  138.3150   77.0380  222.9340 C   0  0  0  0  0  0  0  0  0  0  0  0
  138.2460   78.5170  222.6740 C   0  0  0  0  0  0  0  0  0  0  0  0
  137.8030   78.9980  221.4300 C   0  0  0  0  0  0  0  0  0  0  0  0
  137.7160   80.3750  221.1990 C   0  0  0  0  0  0  0  0  0  0  0  0
  138.0600   81.2780  222.2100 C   0  0  0  0  0  0  0  0  0  0  0  0
  138.4890   80.8060  223.4540 C   0  0  0  0  0  0  0  0  0  0  0  0
  138.5800   79.4310  223.6880 C   0  0  0  0  0  0  0  0  0  0  0  0
  140.9340   77.1310  221.7390 N   0  0  0  0  0  0  0  0  0  0  0  0
  141.3390   77.5800  223.0920 C   0  0  0  0  0  0  0  0  0  0  0  0
  141.6530   79.0170  222.9540 C   0  0  0  0  0  0  0  0  0  0  0  0
  142.1440   79.8880  223.9270 C   0  0  0  0  0  0  0  0  0  0  0  0
  142.3430   81.2350  223.5830 C   0  0  0  0  0  0  0  0  0  0  0  0
  142.0400   81.6830  222.2830 C   0  0  0  0  0  0  0  0  0  0  0  0
  141.5410   80.7860  221.3260 C   0  0  0  0  0  0  0  0  0  0  0  0
  141.3670   79.4480  221.6930 C   0  0  0  0  0  0  0  0  0  0  0  0
  140.8350   78.3320  220.8760 C   0  0  1  0  0  0  0  0  0  0  0  0
  141.6650   78.1240  219.6400 C   0  0  0  0  0  0  0  0  0  0  0  0
  142.0820   79.1090  218.7460 C   0  0  0  0  0  0  0  0  0  0  0  0
  142.8680   78.5730  217.7860 N   0  0  0  0  0  0  0  0  0  0  0  0
  142.9570   77.2620  218.0660 C   0  0  0  0  0  0  0  0  0  0  0  0
  143.6850   76.2990  217.3680 C   0  0  0  0  0  0  0  0  0  0  0  0
  143.6640   74.9790  217.8530 C   0  0  0  0  0  0  0  0  0  0  0  0
  142.9250   74.6540  219.0130 C   0  0  0  0  0  0  0  0  0  0  0  0
  142.2010   75.6490  219.6980 C   0  0  0  0  0  0  0  0  0  0  0  0
  142.2400   76.9490  219.1940 C   0  0  0  0  0  0  0  0  0  0  0  0
  137.3105   76.6036  222.8227 H   0  0  0  0  0  0  0  0  0  0  0  0
  138.6882   76.8734  223.9556 H   0  0  0  0  0  0  0  0  0  0  0  0
  137.5239   78.2899  220.6359 H   0  0  0  0  0  0  0  0  0  0  0  0
  137.3767   80.7478  220.2213 H   0  0  0  0  0  0  0  0  0  0  0  0
  137.9930   82.3605  222.0262 H   0  0  0  0  0  0  0  0  0  0  0  0
  138.7552   81.5175  224.2495 H   0  0  0  0  0  0  0  0  0  0  0  0
  138.9142   79.0630  224.6693 H   0  0  0  0  0  0  0  0  0  0  0  0
  140.5168   77.4333  223.8078 H   0  0  0  0  0  0  0  0  0  0  0  0
  142.1996   77.0090  223.4707 H   0  0  0  0  0  0  0  0  0  0  0  0
  142.3703   79.5276  224.9414 H   0  0  0  0  0  0  0  0  0  0  0  0
  142.7359   81.9406  224.3298 H   0  0  0  0  0  0  0  0  0  0  0  0
  142.1948   82.7390  222.0168 H   0  0  0  0  0  0  0  0  0  0  0  0
  141.2924   81.1277  220.3104 H   0  0  0  0  0  0  0  0  0  0  0  0
  139.8054   78.5379  220.5482 H   0  0  0  0  0  0  0  0  0  0  0  0
  141.8097   80.1727  218.8125 H   0  0  0  0  0  0  0  0  0  0  0  0
  143.3280   79.0830  216.9980 H   0  0  0  0  0  0  0  0  0  0  0  0
  144.2575   76.5634  216.4667 H   0  0  0  0  0  0  0  0  0  0  0  0
  144.2265   74.1943  217.3259 H   0  0  0  0  0  0  0  0  0  0  0  0
  142.9152   73.6181  219.3829 H   0  0  0  0  0  0  0  0  0  0  0  0
  141.6228   75.4084  220.6023 H   0  0  0  0  0  0  0  0  0  0  0  0
  1  2  2  0
  2  3  2  0
  2  4  1  0
  4  5  1  0
  5  6  2  0
  6  7  1  0
  7  8  2  0
  8  9  1  0
  9 10  2  0
  2 11  1  0
 11 12  1  0
 12 13  1  0
 13 14  2  0
 14 15  1  0
 15 16  2  0
 16 17  1  0
 17 18  2  0
 18 19  1  0
 19 20  1  0
 20 21  2  0
 21 22  1  0
 22 23  1  0
 23 24  2  0
 24 25  1  0
 25 26  2  0
 26 27  1  0
 27 28  2  0
 10  5  1  0
 19 11  1  0
 28 20  1  0
 18 13  1  0
 28 23  1  0
  4 29  1  0
  4 30  1  0
  6 31  1  0
  7 32  1  0
  8 33  1  0
  9 34  1  0
 10 35  1  0
 12 36  1  0
 12 37  1  0
 14 38  1  0
 15 39  1  0
 16 40  1  0
 17 41  1  0
 19 42  1  6
 21 43  1  0
 22 44  1  0
 24 45  1  0
 25 46  1  0
 26 47  1  0
 27 48  1  0
M  END
>  <meeko>  (16) 
{"free_energy": -7.5, "intermolecular_energy": -8.7, "internal_energy": -2.32, "cluster_size": 18, "cluster_id": 2, "rank_in_cluster": 17}

$$$$

     RDKit          3D

 48 52  0  0  0  0  0  0  0  0999 V2000
  139.9600   74.9650  222.2900 O   0  0  0  0  0  0  0  0  0  0  0  0
  139.6000   76.3490  221.8270 S   0  0  0  0  0  0  0  0  0  0  0  0
  138.9660   76.2650  220.4650 O   0  0  0  0  0  0  0  0  0  0  0  0
  138.4500   77.0690  222.9870 C   0  0  0  0  0  0  0  0  0  0  0  0
  138.2830   78.5380  222.7200 C   0  0  0  0  0  0  0  0  0  0  0  0
  137.7960   78.9820  221.4790 C   0  0  0  0  0  0  0  0  0  0  0  0
  137.6170   80.3490  221.2420 C   0  0  0  0  0  0  0  0  0  0  0  0
  137.9130   81.2790  222.2430 C   0  0  0  0  0  0  0  0  0  0  0  0
  138.3850   80.8430  223.4850 C   0  0  0  0  0  0  0  0  0  0  0  0
  138.5670   79.4780  223.7250 C   0  0  0  0  0  0  0  0  0  0  0  0
  141.0420   77.3310  221.7590 N   0  0  0  0  0  0  0  0  0  0  0  0
  141.4230   77.8320  223.1000 C   0  0  0  0  0  0  0  0  0  0  0  0
  141.6350   79.2850  222.9340 C   0  0  0  0  0  0  0  0  0  0  0  0
  142.0700   80.2060  223.8880 C   0  0  0  0  0  0  0  0  0  0  0  0
  142.1720   81.5570  223.5180 C   0  0  0  0  0  0  0  0  0  0  0  0
  141.8300   81.9580  222.2130 C   0  0  0  0  0  0  0  0  0  0  0  0
  141.3890   81.0110  221.2750 C   0  0  0  0  0  0  0  0  0  0  0  0
  141.3110   79.6720  221.6680 C   0  0  0  0  0  0  0  0  0  0  0  0
  140.8540   78.5060  220.8760 C   0  0  1  0  0  0  0  0  0  0  0  0
  141.6880   78.3340  219.6370 C   0  0  0  0  0  0  0  0  0  0  0  0
  142.1310   79.3470  218.7880 C   0  0  0  0  0  0  0  0  0  0  0  0
  142.9120   78.8370  217.8110 N   0  0  0  0  0  0  0  0  0  0  0  0
  142.9750   77.5140  218.0370 C   0  0  0  0  0  0  0  0  0  0  0  0
  143.6880   76.5660  217.3030 C   0  0  0  0  0  0  0  0  0  0  0  0
  143.6380   75.2280  217.7310 C   0  0  0  0  0  0  0  0  0  0  0  0
  142.8850   74.8690  218.8720 C   0  0  0  0  0  0  0  0  0  0  0  0
  142.1760   75.8480  219.5940 C   0  0  0  0  0  0  0  0  0  0  0  0
  142.2440   77.1670  219.1450 C   0  0  0  0  0  0  0  0  0  0  0  0
  137.4749   76.5698  222.8870 H   0  0  0  0  0  0  0  0  0  0  0  0
  138.8421   76.9351  224.0060 H   0  0  0  0  0  0  0  0  0  0  0  0
  137.5548   78.2526  220.6917 H   0  0  0  0  0  0  0  0  0  0  0  0
  137.2427   80.6927  220.2664 H   0  0  0  0  0  0  0  0  0  0  0  0
  137.7746   82.3537  222.0536 H   0  0  0  0  0  0  0  0  0  0  0  0
  138.6133   81.5749  224.2738 H   0  0  0  0  0  0  0  0  0  0  0  0
  138.9341   79.1383  224.7047 H   0  0  0  0  0  0  0  0  0  0  0  0
  140.6176   77.6415  223.8245 H   0  0  0  0  0  0  0  0  0  0  0  0
  142.3238   77.3296  223.4822 H   0  0  0  0  0  0  0  0  0  0  0  0
  142.3273   79.8811  224.9069 H   0  0  0  0  0  0  0  0  0  0  0  0
  142.5194   82.3022  224.2487 H   0  0  0  0  0  0  0  0  0  0  0  0
  141.9085   83.0172  221.9269 H   0  0  0  0  0  0  0  0  0  0  0  0
  141.1115   81.3156  220.2551 H   0  0  0  0  0  0  0  0  0  0  0  0
  139.8102   78.6330  220.5531 H   0  0  0  0  0  0  0  0  0  0  0  0
  141.8798   80.4122  218.8982 H   0  0  0  0  0  0  0  0  0  0  0  0
  143.3880   79.3700  217.0480 H   0  0  0  0  0  0  0  0  0  0  0  0
  144.2713   76.8565  216.4168 H   0  0  0  0  0  0  0  0  0  0  0  0
  144.1885   74.4553  217.1743 H   0  0  0  0  0  0  0  0  0  0  0  0
  142.8527   73.8188  219.1977 H   0  0  0  0  0  0  0  0  0  0  0  0
  141.5871   75.5812  220.4839 H   0  0  0  0  0  0  0  0  0  0  0  0
  1  2  2  0
  2  3  2  0
  2  4  1  0
  4  5  1  0
  5  6  2  0
  6  7  1  0
  7  8  2  0
  8  9  1  0
  9 10  2  0
  2 11  1  0
 11 12  1  0
 12 13  1  0
 13 14  2  0
 14 15  1  0
 15 16  2  0
 16 17  1  0
 17 18  2  0
 18 19  1  0
 19 20  1  0
 20 21  2  0
 21 22  1  0
 22 23  1  0
 23 24  2  0
 24 25  1  0
 25 26  2  0
 26 27  1  0
 27 28  2  0
 10  5  1  0
 19 11  1  0
 28 20  1  0
 18 13  1  0
 28 23  1  0
  4 29  1  0
  4 30  1  0
  6 31  1  0
  7 32  1  0
  8 33  1  0
  9 34  1  0
 10 35  1  0
 12 36  1  0
 12 37  1  0
 14 38  1  0
 15 39  1  0
 16 40  1  0
 17 41  1  0
 19 42  1  6
 21 43  1  0
 22 44  1  0
 24 45  1  0
 25 46  1  0
 26 47  1  0
 27 48  1  0
M  END
>  <meeko>  (17) 
{"free_energy": -7.59, "intermolecular_energy": -8.78, "internal_energy": -2.31, "cluster_size": 18, "cluster_id": 2, "rank_in_cluster": 2}

$$$$

     RDKit          3D

 48 52  0  0  0  0  0  0  0  0999 V2000
  139.9540   74.9110  222.2490 O   0  0  0  0  0  0  0  0  0  0  0  0
  139.5950   76.3010  221.8010 S   0  0  0  0  0  0  0  0  0  0  0  0
  138.9650   76.2320  220.4370 O   0  0  0  0  0  0  0  0  0  0  0  0
  138.4400   77.0060  222.9660 C   0  0  0  0  0  0  0  0  0  0  0  0
  138.2400   78.4690  222.6880 C   0  0  0  0  0  0  0  0  0  0  0  0
  138.5440   79.4260  223.6710 C   0  0  0  0  0  0  0  0  0  0  0  0
  138.3810   80.7880  223.4010 C   0  0  0  0  0  0  0  0  0  0  0  0
  137.9230   81.2040  222.1470 C   0  0  0  0  0  0  0  0  0  0  0  0
  137.6310   80.2590  221.1600 C   0  0  0  0  0  0  0  0  0  0  0  0
  137.7910   78.8960  221.4260 C   0  0  0  0  0  0  0  0  0  0  0  0
  141.0360   77.2840  221.7500 N   0  0  0  0  0  0  0  0  0  0  0  0
  141.4110   77.7730  223.0980 C   0  0  0  0  0  0  0  0  0  0  0  0
  141.6230   79.2270  222.9460 C   0  0  0  0  0  0  0  0  0  0  0  0
  142.0520   80.1400  223.9110 C   0  0  0  0  0  0  0  0  0  0  0  0
  142.1550   81.4940  223.5530 C   0  0  0  0  0  0  0  0  0  0  0  0
  141.8200   81.9070  222.2500 C   0  0  0  0  0  0  0  0  0  0  0  0
  141.3840   80.9680  221.3020 C   0  0  0  0  0  0  0  0  0  0  0  0
  141.3050   79.6250  221.6810 C   0  0  0  0  0  0  0  0  0  0  0  0
  140.8520   78.4670  220.8760 C   0  0  1  0  0  0  0  0  0  0  0  0
  141.6930   78.3060  219.6400 C   0  0  0  0  0  0  0  0  0  0  0  0
  142.1410   79.3280  218.8040 C   0  0  0  0  0  0  0  0  0  0  0  0
  142.9280   78.8270  217.8260 N   0  0  0  0  0  0  0  0  0  0  0  0
  142.9870   77.5010  218.0390 C   0  0  0  0  0  0  0  0  0  0  0  0
  143.7040   76.5600  217.2990 C   0  0  0  0  0  0  0  0  0  0  0  0
  143.6500   75.2180  217.7140 C   0  0  0  0  0  0  0  0  0  0  0  0
  142.8910   74.8480  218.8470 C   0  0  0  0  0  0  0  0  0  0  0  0
  142.1790   75.8210  219.5750 C   0  0  0  0  0  0  0  0  0  0  0  0
  142.2500   77.1440  219.1400 C   0  0  0  0  0  0  0  0  0  0  0  0
  137.4748   76.4856  222.8790 H   0  0  0  0  0  0  0  0  0  0  0  0
  138.8434   76.8887  223.9826 H   0  0  0  0  0  0  0  0  0  0  0  0
  138.9114   79.1025  224.6561 H   0  0  0  0  0  0  0  0  0  0  0  0
  138.6133   81.5333  224.1760 H   0  0  0  0  0  0  0  0  0  0  0  0
  137.7925   82.2759  221.9374 H   0  0  0  0  0  0  0  0  0  0  0  0
  137.2748   80.5880  220.1726 H   0  0  0  0  0  0  0  0  0  0  0  0
  137.5648   78.1550  220.6452 H   0  0  0  0  0  0  0  0  0  0  0  0
  140.6024   77.5756  223.8172 H   0  0  0  0  0  0  0  0  0  0  0  0
  142.3102   77.2674  223.4798 H   0  0  0  0  0  0  0  0  0  0  0  0
  142.3036   79.8064  224.9286 H   0  0  0  0  0  0  0  0  0  0  0  0
  142.4980   82.2329  224.2921 H   0  0  0  0  0  0  0  0  0  0  0  0
  141.9001   82.9687  221.9736 H   0  0  0  0  0  0  0  0  0  0  0  0
  141.1107   81.2821  220.2838 H   0  0  0  0  0  0  0  0  0  0  0  0
  139.8100   78.5970  220.5484 H   0  0  0  0  0  0  0  0  0  0  0  0
  141.8894   80.3921  218.9236 H   0  0  0  0  0  0  0  0  0  0  0  0
  143.4080   79.3670  217.0710 H   0  0  0  0  0  0  0  0  0  0  0  0
  144.2926   76.8588  216.4191 H   0  0  0  0  0  0  0  0  0  0  0  0
  144.2027   74.4503  217.1526 H   0  0  0  0  0  0  0  0  0  0  0  0
  142.8561   73.7947  219.1620 H   0  0  0  0  0  0  0  0  0  0  0  0
  141.5854   75.5459  220.4592 H   0  0  0  0  0  0  0  0  0  0  0  0
  1  2  2  0
  2  3  2  0
  2  4  1  0
  4  5  1  0
  5  6  2  0
  6  7  1  0
  7  8  2  0
  8  9  1  0
  9 10  2  0
  2 11  1  0
 11 12  1  0
 12 13  1  0
 13 14  2  0
 14 15  1  0
 15 16  2  0
 16 17  1  0
 17 18  2  0
 18 19  1  0
 19 20  1  0
 20 21  2  0
 21 22  1  0
 22 23  1  0
 23 24  2  0
 24 25  1  0
 25 26  2  0
 26 27  1  0
 27 28  2  0
 10  5  1  0
 19 11  1  0
 28 20  1  0
 18 13  1  0
 28 23  1  0
  4 29  1  0
  4 30  1  0
  6 31  1  0
  7 32  1  0
  8 33  1  0
  9 34  1  0
 10 35  1  0
 12 36  1  0
 12 37  1  0
 14 38  1  0
 15 39  1  0
 16 40  1  0
 17 41  1  0
 19 42  1  6
 21 43  1  0
 22 44  1  0
 24 45  1  0
 25 46  1  0
 26 47  1  0
 27 48  1  0
M  END
>  <meeko>  (18) 
{"free_energy": -7.57, "intermolecular_energy": -8.76, "internal_energy": -2.32, "cluster_size": 18, "cluster_id": 2, "rank_in_cluster": 14}

$$$$

     RDKit          3D

 48 52  0  0  0  0  0  0  0  0999 V2000
  139.9410   74.9740  222.2960 O   0  0  0  0  0  0  0  0  0  0  0  0
  139.5800   76.3610  221.8420 S   0  0  0  0  0  0  0  0  0  0  0  0
  138.9380   76.2840  220.4840 O   0  0  0  0  0  0  0  0  0  0  0  0
  138.4360   77.0760  223.0120 C   0  0  0  0  0  0  0  0  0  0  0  0
  138.2360   78.5380  222.7270 C   0  0  0  0  0  0  0  0  0  0  0  0
  138.5360   79.4990  223.7070 C   0  0  0  0  0  0  0  0  0  0  0  0
  138.3730   80.8600  223.4300 C   0  0  0  0  0  0  0  0  0  0  0  0
  137.9210   81.2710  222.1730 C   0  0  0  0  0  0  0  0  0  0  0  0
  137.6330   80.3210  221.1880 C   0  0  0  0  0  0  0  0  0  0  0  0
  137.7920   78.9590  221.4620 C   0  0  0  0  0  0  0  0  0  0  0  0
  141.0220   77.3420  221.7710 N   0  0  0  0  0  0  0  0  0  0  0  0
  141.4000   77.8530  223.1100 C   0  0  0  0  0  0  0  0  0  0  0  0
  141.6130   79.3040  222.9350 C   0  0  0  0  0  0  0  0  0  0  0  0
  142.0460   80.2320  223.8830 C   0  0  0  0  0  0  0  0  0  0  0  0
  142.1490   81.5790  223.5040 C   0  0  0  0  0  0  0  0  0  0  0  0
  141.8110   81.9720  222.1950 C   0  0  0  0  0  0  0  0  0  0  0  0
  141.3720   81.0190  221.2630 C   0  0  0  0  0  0  0  0  0  0  0  0
  141.2920   79.6820  221.6650 C   0  0  0  0  0  0  0  0  0  0  0  0
  140.8370   78.5110  220.8790 C   0  0  1  0  0  0  0  0  0  0  0  0
  141.6740   78.3300  219.6440 C   0  0  0  0  0  0  0  0  0  0  0  0
  142.1250   79.3380  218.7930 C   0  0  0  0  0  0  0  0  0  0  0  0
  142.9080   78.8200  217.8200 N   0  0  0  0  0  0  0  0  0  0  0  0
  142.9620   77.4980  218.0510 C   0  0  0  0  0  0  0  0  0  0  0  0
  143.6730   76.5430  217.3230 C   0  0  0  0  0  0  0  0  0  0  0  0
  143.6150   75.2070  217.7570 C   0  0  0  0  0  0  0  0  0  0  0  0
  142.8560   74.8560  218.8960 C   0  0  0  0  0  0  0  0  0  0  0  0
  142.1500   75.8420  219.6120 C   0  0  0  0  0  0  0  0  0  0  0  0
  142.2260   77.1590  219.1590 C   0  0  0  0  0  0  0  0  0  0  0  0
  137.4691   76.5569  222.9362 H   0  0  0  0  0  0  0  0  0  0  0  0
  138.8481   76.9645  224.0258 H   0  0  0  0  0  0  0  0  0  0  0  0
  138.9001   79.1800  224.6948 H   0  0  0  0  0  0  0  0  0  0  0  0
  138.6010   81.6086  224.2030 H   0  0  0  0  0  0  0  0  0  0  0  0
  137.7918   82.3421  221.9584 H   0  0  0  0  0  0  0  0  0  0  0  0
  137.2813   80.6452  220.1975 H   0  0  0  0  0  0  0  0  0  0  0  0
  137.5686   78.2141  220.6841 H   0  0  0  0  0  0  0  0  0  0  0  0
  140.5926   77.6678  223.8338 H   0  0  0  0  0  0  0  0  0  0  0  0
  142.2999   77.3530  223.4976 H   0  0  0  0  0  0  0  0  0  0  0  0
  142.3009   79.9145  224.9048 H   0  0  0  0  0  0  0  0  0  0  0  0
  142.4944   82.3291  224.2307 H   0  0  0  0  0  0  0  0  0  0  0  0
  141.8913   83.0292  221.9019 H   0  0  0  0  0  0  0  0  0  0  0  0
  141.0973   81.3167  220.2403 H   0  0  0  0  0  0  0  0  0  0  0  0
  139.7944   78.6365  220.5516 H   0  0  0  0  0  0  0  0  0  0  0  0
  141.8785   80.4048  218.8983 H   0  0  0  0  0  0  0  0  0  0  0  0
  143.3880   79.3480  217.0570 H   0  0  0  0  0  0  0  0  0  0  0  0
  144.2604   76.8267  216.4373 H   0  0  0  0  0  0  0  0  0  0  0  0
  144.1644   74.4295  217.2060 H   0  0  0  0  0  0  0  0  0  0  0  0
  142.8164   73.8071  219.2251 H   0  0  0  0  0  0  0  0  0  0  0  0
  141.5569   75.5816  220.5011 H   0  0  0  0  0  0  0  0  0  0  0  0
  1  2  2  0
  2  3  2  0
  2  4  1  0
  4  5  1  0
  5  6  2  0
  6  7  1  0
  7  8  2  0
  8  9  1  0
  9 10  2  0
  2 11  1  0
 11 12  1  0
 12 13  1  0
 13 14  2  0
 14 15  1  0
 15 16  2  0
 16 17  1  0
 17 18  2  0
 18 19  1  0
 19 20  1  0
 20 21  2  0
 21 22  1  0
 22 23  1  0
 23 24  2  0
 24 25  1  0
 25 26  2  0
 26 27  1  0
 27 28  2  0
 10  5  1  0
 19 11  1  0
 28 20  1  0
 18 13  1  0
 28 23  1  0
  4 29  1  0
  4 30  1  0
  6 31  1  0
  7 32  1  0
  8 33  1  0
  9 34  1  0
 10 35  1  0
 12 36  1  0
 12 37  1  0
 14 38  1  0
 15 39  1  0
 16 40  1  0
 17 41  1  0
 19 42  1  6
 21 43  1  0
 22 44  1  0
 24 45  1  0
 25 46  1  0
 26 47  1  0
 27 48  1  0
M  END
>  <meeko>  (19) 
{"free_energy": -7.55, "intermolecular_energy": -8.75, "internal_energy": -2.33, "cluster_size": 18, "cluster_id": 2, "rank_in_cluster": 15}

$$$$

     RDKit          3D

 48 52  0  0  0  0  0  0  0  0999 V2000
  139.9700   74.9000  222.2320 O   0  0  0  0  0  0  0  0  0  0  0  0
  139.6040   76.2920  221.7950 S   0  0  0  0  0  0  0  0  0  0  0  0
  138.9640   76.2290  220.4360 O   0  0  0  0  0  0  0  0  0  0  0  0
  138.4570   76.9880  222.9730 C   0  0  0  0  0  0  0  0  0  0  0  0
  138.2540   78.4520  222.7080 C   0  0  0  0  0  0  0  0  0  0  0  0
  138.5630   79.4020  223.6960 C   0  0  0  0  0  0  0  0  0  0  0  0
  138.3970   80.7660  223.4370 C   0  0  0  0  0  0  0  0  0  0  0  0
  137.9310   81.1910  222.1890 C   0  0  0  0  0  0  0  0  0  0  0  0
  137.6340   80.2530  221.1960 C   0  0  0  0  0  0  0  0  0  0  0  0
  137.7960   78.8880  221.4520 C   0  0  0  0  0  0  0  0  0  0  0  0
  141.0430   77.2780  221.7380 N   0  0  0  0  0  0  0  0  0  0  0  0
  141.4300   77.7560  223.0870 C   0  0  0  0  0  0  0  0  0  0  0  0
  141.6370   79.2110  222.9460 C   0  0  0  0  0  0  0  0  0  0  0  0
  142.0750   80.1170  223.9140 C   0  0  0  0  0  0  0  0  0  0  0  0
  142.1710   81.4740  223.5680 C   0  0  0  0  0  0  0  0  0  0  0  0
  141.8220   81.8980  222.2720 C   0  0  0  0  0  0  0  0  0  0  0  0
  141.3790   80.9670  221.3200 C   0  0  0  0  0  0  0  0  0  0  0  0
  141.3060   79.6210  221.6880 C   0  0  0  0  0  0  0  0  0  0  0  0
  140.8480   78.4680  220.8770 C   0  0  1  0  0  0  0  0  0  0  0  0
  141.6760   78.3210  219.6310 C   0  0  0  0  0  0  0  0  0  0  0  0
  142.1050   79.3500  218.7940 C   0  0  0  0  0  0  0  0  0  0  0  0
  142.8860   78.8600  217.8060 N   0  0  0  0  0  0  0  0  0  0  0  0
  142.9610   77.5340  218.0130 C   0  0  0  0  0  0  0  0  0  0  0  0
  143.6780   76.6030  217.2620 C   0  0  0  0  0  0  0  0  0  0  0  0
  143.6420   75.2590  217.6720 C   0  0  0  0  0  0  0  0  0  0  0  0
  142.8990   74.8780  218.8120 C   0  0  0  0  0  0  0  0  0  0  0  0
  142.1860   75.8410  219.5520 C   0  0  0  0  0  0  0  0  0  0  0  0
  142.2390   77.1660  219.1210 C   0  0  0  0  0  0  0  0  0  0  0  0
  137.4915   76.4677  222.8889 H   0  0  0  0  0  0  0  0  0  0  0  0
  138.8681   76.8636  223.9857 H   0  0  0  0  0  0  0  0  0  0  0  0
  138.9367   79.0716  224.6764 H   0  0  0  0  0  0  0  0  0  0  0  0
  138.6333   81.5057  224.2161 H   0  0  0  0  0  0  0  0  0  0  0  0
  137.7980   82.2644  221.9885 H   0  0  0  0  0  0  0  0  0  0  0  0
  137.2727   80.5889  220.2128 H   0  0  0  0  0  0  0  0  0  0  0  0
  137.5643   78.1523  220.6678 H   0  0  0  0  0  0  0  0  0  0  0  0
  140.6289   77.5502  223.8122 H   0  0  0  0  0  0  0  0  0  0  0  0
  142.3340   77.2492  223.4556 H   0  0  0  0  0  0  0  0  0  0  0  0
  142.3390   79.7748  224.9255 H   0  0  0  0  0  0  0  0  0  0  0  0
  142.5194   82.2069  224.3106 H   0  0  0  0  0  0  0  0  0  0  0  0
  141.8967   82.9624  222.0046 H   0  0  0  0  0  0  0  0  0  0  0  0
  141.0957   81.2895  220.3072 H   0  0  0  0  0  0  0  0  0  0  0  0
  139.8023   78.5978  220.5612 H   0  0  0  0  0  0  0  0  0  0  0  0
  141.8445   80.4112  218.9200 H   0  0  0  0  0  0  0  0  0  0  0  0
  143.3520   79.4080  217.0480 H   0  0  0  0  0  0  0  0  0  0  0  0
  144.2536   76.9108  216.3766 H   0  0  0  0  0  0  0  0  0  0  0  0
  144.1959   74.4988  217.1017 H   0  0  0  0  0  0  0  0  0  0  0  0
  142.8774   73.8232  219.1232 H   0  0  0  0  0  0  0  0  0  0  0  0
  141.6055   75.5568  220.4421 H   0  0  0  0  0  0  0  0  0  0  0  0
  1  2  2  0
  2  3  2  0
  2  4  1  0
  4  5  1  0
  5  6  2  0
  6  7  1  0
  7  8  2  0
  8  9  1  0
  9 10  2  0
  2 11  1  0
 11 12  1  0
 12 13  1  0
 13 14  2  0
 14 15  1  0
 15 16  2  0
 16 17  1  0
 17 18  2  0
 18 19  1  0
 19 20  1  0
 20 21  2  0
 21 22  1  0
 22 23  1  0
 23 24  2  0
 24 25  1  0
 25 26  2  0
 26 27  1  0
 27 28  2  0
 10  5  1  0
 19 11  1  0
 28 20  1  0
 18 13  1  0
 28 23  1  0
  4 29  1  0
  4 30  1  0
  6 31  1  0
  7 32  1  0
  8 33  1  0
  9 34  1  0
 10 35  1  0
 12 36  1  0
 12 37  1  0
 14 38  1  0
 15 39  1  0
 16 40  1  0
 17 41  1  0
 19 42  1  6
 21 43  1  0
 22 44  1  0
 24 45  1  0
 25 46  1  0
 26 47  1  0
 27 48  1  0
M  END
>  <meeko>  (20) 
{"free_energy": -7.57, "intermolecular_energy": -8.76, "internal_energy": -2.32, "cluster_size": 18, "cluster_id": 2, "rank_in_cluster": 11}

$$$$
