
     RDKit          3D

 48 52  0  0  0  0  0  0  0  0999 V2000
  142.4340   79.8520  224.4950 O   0  0  0  0  0  0  0  0  0  0  0  0
  142.6060   80.0450  223.0130 S   0  0  0  0  0  0  0  0  0  0  0  0
  144.0700   80.2080  222.7150 O   0  0  0  0  0  0  0  0  0  0  0  0
  141.7160   81.5280  222.5560 C   0  0  0  0  0  0  0  0  0  0  0  0
  140.2310   81.3620  222.7260 C   0  0  0  0  0  0  0  0  0  0  0  0
  139.7200   80.6540  223.8270 C   0  0  0  0  0  0  0  0  0  0  0  0
  138.3390   80.5250  224.0010 C   0  0  0  0  0  0  0  0  0  0  0  0
  137.4600   81.0990  223.0780 C   0  0  0  0  0  0  0  0  0  0  0  0
  137.9600   81.8000  221.9780 C   0  0  0  0  0  0  0  0  0  0  0  0
  139.3400   81.9320  221.8000 C   0  0  0  0  0  0  0  0  0  0  0  0
  141.9660   78.6460  222.1750 N   0  0  0  0  0  0  0  0  0  0  0  0
  141.1300   77.7990  223.0560 C   0  0  0  0  0  0  0  0  0  0  0  0
  139.8730   77.5740  222.3170 C   0  0  0  0  0  0  0  0  0  0  0  0
  138.7810   76.7880  222.6950 C   0  0  0  0  0  0  0  0  0  0  0  0
  137.6650   76.7400  221.8430 C   0  0  0  0  0  0  0  0  0  0  0  0
  137.6580   77.4780  220.6450 C   0  0  0  0  0  0  0  0  0  0  0  0
  138.7670   78.2640  220.2940 C   0  0  0  0  0  0  0  0  0  0  0  0
  139.8710   78.2810  221.1520 C   0  0  0  0  0  0  0  0  0  0  0  0
  141.1300   79.0510  221.0190 C   0  0  2  0  0  0  0  0  0  0  0  0
  141.8290   78.7040  219.7340 C   0  0  0  0  0  0  0  0  0  0  0  0
  142.2150   79.5900  218.7300 C   0  0  0  0  0  0  0  0  0  0  0  0
  142.8910   78.9370  217.7580 N   0  0  0  0  0  0  0  0  0  0  0  0
  142.9500   77.6510  218.1440 C   0  0  0  0  0  0  0  0  0  0  0  0
  143.5690   76.5950  217.4760 C   0  0  0  0  0  0  0  0  0  0  0  0
  143.5300   75.3240  218.0760 C   0  0  0  0  0  0  0  0  0  0  0  0
  142.8850   75.1380  219.3190 C   0  0  0  0  0  0  0  0  0  0  0  0
  142.2700   76.2220  219.9720 C   0  0  0  0  0  0  0  0  0  0  0  0
  142.3190   77.4700  219.3490 C   0  0  0  0  0  0  0  0  0  0  0  0
  142.0567   82.3582  223.1921 H   0  0  0  0  0  0  0  0  0  0  0  0
  141.9180   81.7350  221.4947 H   0  0  0  0  0  0  0  0  0  0  0  0
  140.4090   80.1998  224.5543 H   0  0  0  0  0  0  0  0  0  0  0  0
  137.9435   79.9712  224.8652 H   0  0  0  0  0  0  0  0  0  0  0  0
  136.3736   80.9986  223.2180 H   0  0  0  0  0  0  0  0  0  0  0  0
  137.2669   82.2486  221.2511 H   0  0  0  0  0  0  0  0  0  0  0  0
  139.7303   82.4839  220.9322 H   0  0  0  0  0  0  0  0  0  0  0  0
  141.6330   76.8418  223.2578 H   0  0  0  0  0  0  0  0  0  0  0  0
  140.9489   78.2795  224.0288 H   0  0  0  0  0  0  0  0  0  0  0  0
  138.7950   76.2205  223.6372 H   0  0  0  0  0  0  0  0  0  0  0  0
  136.7946   76.1240  222.1131 H   0  0  0  0  0  0  0  0  0  0  0  0
  136.7813   77.4390  219.9818 H   0  0  0  0  0  0  0  0  0  0  0  0
  138.7675   78.8531  219.3651 H   0  0  0  0  0  0  0  0  0  0  0  0
  140.9405   80.1345  221.0036 H   0  0  0  0  0  0  0  0  0  0  0  0
  142.0000   80.6688  218.7285 H   0  0  0  0  0  0  0  0  0  0  0  0
  143.3000   79.3540  216.8920 H   0  0  0  0  0  0  0  0  0  0  0  0
  144.0719   76.7514  216.5103 H   0  0  0  0  0  0  0  0  0  0  0  0
  144.0051   74.4683  217.5739 H   0  0  0  0  0  0  0  0  0  0  0  0
  142.8634   74.1392  219.7794 H   0  0  0  0  0  0  0  0  0  0  0  0
  141.7672   76.0902  220.9415 H   0  0  0  0  0  0  0  0  0  0  0  0
  1  2  2  0
  2  3  2  0
  2  4  1  0
  4  5  1  0
  5  6  2  0
  6  7  1  0
  7  8  2  0
  8  9  1  0
  9 10  2  0
  2 11  1  0
 11 12  1  0
 12 13  1  0
 13 14  2  0
 14 15  1  0
 15 16  2  0
 16 17  1  0
 17 18  2  0
 18 19  1  0
 19 20  1  0
 20 21  2  0
 21 22  1  0
 22 23  1  0
 23 24  2  0
 24 25  1  0
 25 26  2  0
 26 27  1  0
 27 28  2  0
 10  5  1  0
 19 11  1  0
 28 20  1  0
 18 13  1  0
 28 23  1  0
  4 29  1  0
  4 30  1  0
  6 31  1  0
  7 32  1  0
  8 33  1  0
  9 34  1  0
 10 35  1  0
 12 36  1  0
 12 37  1  0
 14 38  1  0
 15 39  1  0
 16 40  1  0
 17 41  1  0
 19 42  1  6
 21 43  1  0
 22 44  1  0
 24 45  1  0
 25 46  1  0
 26 47  1  0
 27 48  1  0
M  END
>  <meeko>  (1) 
{"free_energy": -7.1, "intermolecular_energy": -8.3, "internal_energy": -2.48, "cluster_size": 9, "cluster_id": 3, "rank_in_cluster": 3}

$$$$

     RDKit          3D

 48 52  0  0  0  0  0  0  0  0999 V2000
  142.4050   79.8410  224.5240 O   0  0  0  0  0  0  0  0  0  0  0  0
  142.5740   80.0350  223.0430 S   0  0  0  0  0  0  0  0  0  0  0  0
  144.0390   80.1950  222.7420 O   0  0  0  0  0  0  0  0  0  0  0  0
  141.6870   81.5210  222.5890 C   0  0  0  0  0  0  0  0  0  0  0  0
  140.2010   81.3500  222.7410 C   0  0  0  0  0  0  0  0  0  0  0  0
  139.3260   81.8670  221.7710 C   0  0  0  0  0  0  0  0  0  0  0  0
  137.9460   81.6840  221.8970 C   0  0  0  0  0  0  0  0  0  0  0  0
  137.4300   80.9850  222.9930 C   0  0  0  0  0  0  0  0  0  0  0  0
  138.2920   80.4720  223.9650 C   0  0  0  0  0  0  0  0  0  0  0  0
  139.6730   80.6530  223.8430 C   0  0  0  0  0  0  0  0  0  0  0  0
  141.9300   78.6390  222.2040 N   0  0  0  0  0  0  0  0  0  0  0  0
  141.0710   77.8070  223.0790 C   0  0  0  0  0  0  0  0  0  0  0  0
  139.8220   77.5920  222.3240 C   0  0  0  0  0  0  0  0  0  0  0  0
  138.7170   76.8220  222.6910 C   0  0  0  0  0  0  0  0  0  0  0  0
  137.6120   76.7810  221.8250 C   0  0  0  0  0  0  0  0  0  0  0  0
  137.6290   77.5120  220.6230 C   0  0  0  0  0  0  0  0  0  0  0  0
  138.7520   78.2830  220.2820 C   0  0  0  0  0  0  0  0  0  0  0  0
  139.8440   78.2920  221.1550 C   0  0  0  0  0  0  0  0  0  0  0  0
  141.1140   79.0470  221.0350 C   0  0  2  0  0  0  0  0  0  0  0  0
  141.8270   78.6840  219.7610 C   0  0  0  0  0  0  0  0  0  0  0  0
  142.2200   79.5570  218.7480 C   0  0  0  0  0  0  0  0  0  0  0  0
  142.9070   78.8930  217.7920 N   0  0  0  0  0  0  0  0  0  0  0  0
  142.9650   77.6130  218.1970 C   0  0  0  0  0  0  0  0  0  0  0  0
  143.5930   76.5490  217.5490 C   0  0  0  0  0  0  0  0  0  0  0  0
  143.5520   75.2860  218.1660 C   0  0  0  0  0  0  0  0  0  0  0  0
  142.8960   75.1150  219.4050 C   0  0  0  0  0  0  0  0  0  0  0  0
  142.2720   76.2070  220.0370 C   0  0  0  0  0  0  0  0  0  0  0  0
  142.3230   77.4460  219.3980 C   0  0  0  0  0  0  0  0  0  0  0  0
  142.0189   82.3461  223.2363 H   0  0  0  0  0  0  0  0  0  0  0  0
  141.9008   81.7386  221.5321 H   0  0  0  0  0  0  0  0  0  0  0  0
  139.7287   82.4183  220.9085 H   0  0  0  0  0  0  0  0  0  0  0  0
  137.2656   82.0899  221.1339 H   0  0  0  0  0  0  0  0  0  0  0  0
  136.3440   80.8391  223.0896 H   0  0  0  0  0  0  0  0  0  0  0  0
  137.8838   79.9249  224.8276 H   0  0  0  0  0  0  0  0  0  0  0  0
  140.3488   80.2491  224.6112 H   0  0  0  0  0  0  0  0  0  0  0  0
  141.5597   76.8452  223.2939 H   0  0  0  0  0  0  0  0  0  0  0  0
  140.8819   78.2960  224.0460 H   0  0  0  0  0  0  0  0  0  0  0  0
  138.7118   76.2602  223.6367 H   0  0  0  0  0  0  0  0  0  0  0  0
  136.7314   76.1761  222.0871 H   0  0  0  0  0  0  0  0  0  0  0  0
  136.7605   77.4795  219.9487 H   0  0  0  0  0  0  0  0  0  0  0  0
  138.7721   78.8663  219.3496 H   0  0  0  0  0  0  0  0  0  0  0  0
  140.9368   80.1324  221.0113 H   0  0  0  0  0  0  0  0  0  0  0  0
  142.0017   80.6350  218.7292 H   0  0  0  0  0  0  0  0  0  0  0  0
  143.3230   79.2990  216.9240 H   0  0  0  0  0  0  0  0  0  0  0  0
  144.1041   76.6935  216.5857 H   0  0  0  0  0  0  0  0  0  0  0  0
  144.0343   74.4250  217.6801 H   0  0  0  0  0  0  0  0  0  0  0  0
  142.8726   74.1226  219.8789 H   0  0  0  0  0  0  0  0  0  0  0  0
  141.7607   76.0873  221.0035 H   0  0  0  0  0  0  0  0  0  0  0  0
  1  2  2  0
  2  3  2  0
  2  4  1  0
  4  5  1  0
  5  6  2  0
  6  7  1  0
  7  8  2  0
  8  9  1  0
  9 10  2  0
  2 11  1  0
 11 12  1  0
 12 13  1  0
 13 14  2  0
 14 15  1  0
 15 16  2  0
 16 17  1  0
 17 18  2  0
 18 19  1  0
 19 20  1  0
 20 21  2  0
 21 22  1  0
 22 23  1  0
 23 24  2  0
 24 25  1  0
 25 26  2  0
 26 27  1  0
 27 28  2  0
 10  5  1  0
 19 11  1  0
 28 20  1  0
 18 13  1  0
 28 23  1  0
  4 29  1  0
  4 30  1  0
  6 31  1  0
  7 32  1  0
  8 33  1  0
  9 34  1  0
 10 35  1  0
 12 36  1  0
 12 37  1  0
 14 38  1  0
 15 39  1  0
 16 40  1  0
 17 41  1  0
 19 42  1  6
 21 43  1  0
 22 44  1  0
 24 45  1  0
 25 46  1  0
 26 47  1  0
 27 48  1  0
M  END
>  <meeko>  (2) 
{"free_energy": -7.1, "intermolecular_energy": -8.29, "internal_energy": -2.51, "cluster_size": 9, "cluster_id": 3, "rank_in_cluster": 6}

$$$$

     RDKit          3D

 48 52  0  0  0  0  0  0  0  0999 V2000
  140.9690   75.2360  222.1460 O   0  0  0  0  0  0  0  0  0  0  0  0
  140.3380   75.7480  220.8810 S   0  0  0  0  0  0  0  0  0  0  0  0
  138.9080   75.2870  220.8330 O   0  0  0  0  0  0  0  0  0  0  0  0
  141.2530   75.0600  219.5060 C   0  0  0  0  0  0  0  0  0  0  0  0
  142.5260   74.3990  219.9590 C   0  0  0  0  0  0  0  0  0  0  0  0
  143.7220   75.1340  220.0200 C   0  0  0  0  0  0  0  0  0  0  0  0
  144.8990   74.5270  220.4680 C   0  0  0  0  0  0  0  0  0  0  0  0
  144.8910   73.1850  220.8570 C   0  0  0  0  0  0  0  0  0  0  0  0
  143.7070   72.4450  220.7950 C   0  0  0  0  0  0  0  0  0  0  0  0
  142.5270   73.0480  220.3460 C   0  0  0  0  0  0  0  0  0  0  0  0
  140.4140   77.4980  220.8710 N   0  0  0  0  0  0  0  0  0  0  0  0
  139.6970   78.0960  222.0210 C   0  0  0  0  0  0  0  0  0  0  0  0
  140.6420   79.0530  222.6270 C   0  0  0  0  0  0  0  0  0  0  0  0
  140.4230   79.9140  223.7040 C   0  0  0  0  0  0  0  0  0  0  0  0
  141.4840   80.7260  224.1390 C   0  0  0  0  0  0  0  0  0  0  0  0
  142.7360   80.6550  223.5000 C   0  0  0  0  0  0  0  0  0  0  0  0
  142.9290   79.7750  222.4230 C   0  0  0  0  0  0  0  0  0  0  0  0
  141.8510   78.9910  222.0010 C   0  0  0  0  0  0  0  0  0  0  0  0
  141.8170   77.9740  220.9240 C   0  0  2  0  0  0  0  0  0  0  0  0
  142.2000   78.5870  219.6050 C   0  0  0  0  0  0  0  0  0  0  0  0
  142.8110   77.9410  218.5310 C   0  0  0  0  0  0  0  0  0  0  0  0
  142.9330   78.7830  217.4800 N   0  0  0  0  0  0  0  0  0  0  0  0
  142.3920   79.9490  217.8730 C   0  0  0  0  0  0  0  0  0  0  0  0
  142.2660   81.1170  217.1220 C   0  0  0  0  0  0  0  0  0  0  0  0
  141.6400   82.2230  217.7250 C   0  0  0  0  0  0  0  0  0  0  0  0
  141.1570   82.1380  219.0500 C   0  0  0  0  0  0  0  0  0  0  0  0
  141.2970   80.9460  219.7840 C   0  0  0  0  0  0  0  0  0  0  0  0
  141.9280   79.8670  219.1610 C   0  0  0  0  0  0  0  0  0  0  0  0
  140.6250   74.3133  218.9980 H   0  0  0  0  0  0  0  0  0  0  0  0
  141.5175   75.8822  218.8248 H   0  0  0  0  0  0  0  0  0  0  0  0
  143.7322   76.1906  219.7142 H   0  0  0  0  0  0  0  0  0  0  0  0
  145.8327   75.1067  220.5143 H   0  0  0  0  0  0  0  0  0  0  0  0
  145.8176   72.7104  221.2124 H   0  0  0  0  0  0  0  0  0  0  0  0
  143.7028   71.3880  221.0994 H   0  0  0  0  0  0  0  0  0  0  0  0
  141.5970   72.4627  220.2957 H   0  0  0  0  0  0  0  0  0  0  0  0
  138.7904   78.6167  221.6790 H   0  0  0  0  0  0  0  0  0  0  0  0
  139.3766   77.3299  222.7424 H   0  0  0  0  0  0  0  0  0  0  0  0
  139.4424   79.9557  224.2006 H   0  0  0  0  0  0  0  0  0  0  0  0
  141.3358   81.4186  224.9807 H   0  0  0  0  0  0  0  0  0  0  0  0
  143.5651   81.2903  223.8450 H   0  0  0  0  0  0  0  0  0  0  0  0
  143.9061   79.7040  221.9227 H   0  0  0  0  0  0  0  0  0  0  0  0
  142.5252   77.1556  221.1208 H   0  0  0  0  0  0  0  0  0  0  0  0
  143.1467   76.8935  218.5377 H   0  0  0  0  0  0  0  0  0  0  0  0
  143.3480   78.5630  216.5470 H   0  0  0  0  0  0  0  0  0  0  0  0
  142.6442   81.1718  216.0905 H   0  0  0  0  0  0  0  0  0  0  0  0
  141.5257   83.1605  217.1611 H   0  0  0  0  0  0  0  0  0  0  0  0
  140.6684   83.0093  219.5106 H   0  0  0  0  0  0  0  0  0  0  0  0
  140.9217   80.8664  220.8149 H   0  0  0  0  0  0  0  0  0  0  0  0
  1  2  2  0
  2  3  2  0
  2  4  1  0
  4  5  1  0
  5  6  2  0
  6  7  1  0
  7  8  2  0
  8  9  1  0
  9 10  2  0
  2 11  1  0
 11 12  1  0
 12 13  1  0
 13 14  2  0
 14 15  1  0
 15 16  2  0
 16 17  1  0
 17 18  2  0
 18 19  1  0
 19 20  1  0
 20 21  2  0
 21 22  1  0
 22 23  1  0
 23 24  2  0
 24 25  1  0
 25 26  2  0
 26 27  1  0
 27 28  2  0
 10  5  1  0
 19 11  1  0
 28 20  1  0
 18 13  1  0
 28 23  1  0
  4 29  1  0
  4 30  1  0
  6 31  1  0
  7 32  1  0
  8 33  1  0
  9 34  1  0
 10 35  1  0
 12 36  1  0
 12 37  1  0
 14 38  1  0
 15 39  1  0
 16 40  1  0
 17 41  1  0
 19 42  1  1
 21 43  1  0
 22 44  1  0
 24 45  1  0
 25 46  1  0
 26 47  1  0
 27 48  1  0
M  END
>  <meeko>  (3) 
{"free_energy": -8.06, "intermolecular_energy": -9.26, "internal_energy": -1.82, "cluster_size": 6, "cluster_id": 2, "rank_in_cluster": 6}

$$$$

     RDKit          3D

 48 52  0  0  0  0  0  0  0  0999 V2000
  142.4080   79.8730  224.5130 O   0  0  0  0  0  0  0  0  0  0  0  0
  142.6040   80.0480  223.0330 S   0  0  0  0  0  0  0  0  0  0  0  0
  144.0740   80.1940  222.7550 O   0  0  0  0  0  0  0  0  0  0  0  0
  141.7350   81.5340  222.5460 C   0  0  0  0  0  0  0  0  0  0  0  0
  140.2510   81.4020  222.7440 C   0  0  0  0  0  0  0  0  0  0  0  0
  139.3600   81.9690  221.8170 C   0  0  0  0  0  0  0  0  0  0  0  0
  137.9800   81.8210  221.9850 C   0  0  0  0  0  0  0  0  0  0  0  0
  137.4800   81.1080  223.0790 C   0  0  0  0  0  0  0  0  0  0  0  0
  138.3580   80.5440  224.0070 C   0  0  0  0  0  0  0  0  0  0  0  0
  139.7390   80.6900  223.8430 C   0  0  0  0  0  0  0  0  0  0  0  0
  141.9640   78.6470  222.2000 N   0  0  0  0  0  0  0  0  0  0  0  0
  141.1240   77.8050  223.0830 C   0  0  0  0  0  0  0  0  0  0  0  0
  139.8680   77.5780  222.3420 C   0  0  0  0  0  0  0  0  0  0  0  0
  138.7750   76.7970  222.7210 C   0  0  0  0  0  0  0  0  0  0  0  0
  137.6600   76.7450  221.8670 C   0  0  0  0  0  0  0  0  0  0  0  0
  137.6560   77.4780  220.6660 C   0  0  0  0  0  0  0  0  0  0  0  0
  138.7680   78.2610  220.3130 C   0  0  0  0  0  0  0  0  0  0  0  0
  139.8700   78.2800  221.1740 C   0  0  0  0  0  0  0  0  0  0  0  0
  141.1300   79.0470  221.0400 C   0  0  2  0  0  0  0  0  0  0  0  0
  141.8320   78.6930  219.7580 C   0  0  0  0  0  0  0  0  0  0  0  0
  142.2300   79.5740  218.7540 C   0  0  0  0  0  0  0  0  0  0  0  0
  142.9040   78.9150  217.7860 N   0  0  0  0  0  0  0  0  0  0  0  0
  142.9500   77.6290  218.1740 C   0  0  0  0  0  0  0  0  0  0  0  0
  143.5630   76.5670  217.5090 C   0  0  0  0  0  0  0  0  0  0  0  0
  143.5110   75.2970  218.1100 C   0  0  0  0  0  0  0  0  0  0  0  0
  142.8590   75.1170  219.3510 C   0  0  0  0  0  0  0  0  0  0  0  0
  142.2510   76.2080  220.0000 C   0  0  0  0  0  0  0  0  0  0  0  0
  142.3130   77.4540  219.3760 C   0  0  0  0  0  0  0  0  0  0  0  0
  142.1017   82.3758  223.1517 H   0  0  0  0  0  0  0  0  0  0  0  0
  141.9236   81.7057  221.4760 H   0  0  0  0  0  0  0  0  0  0  0  0
  139.7499   82.5315  220.9558 H   0  0  0  0  0  0  0  0  0  0  0  0
  137.2869   82.2659  221.2559 H   0  0  0  0  0  0  0  0  0  0  0  0
  136.3939   80.9912  223.2088 H   0  0  0  0  0  0  0  0  0  0  0  0
  137.9629   79.9844  224.8677 H   0  0  0  0  0  0  0  0  0  0  0  0
  140.4277   80.2460  224.5769 H   0  0  0  0  0  0  0  0  0  0  0  0
  141.6251   76.8480  223.2905 H   0  0  0  0  0  0  0  0  0  0  0  0
  140.9410   78.2906  224.0529 H   0  0  0  0  0  0  0  0  0  0  0  0
  138.7861   76.2350  223.6665 H   0  0  0  0  0  0  0  0  0  0  0  0
  136.7890   76.1302  222.1380 H   0  0  0  0  0  0  0  0  0  0  0  0
  136.7801   77.4380  220.0017 H   0  0  0  0  0  0  0  0  0  0  0  0
  138.7718   78.8455  219.3811 H   0  0  0  0  0  0  0  0  0  0  0  0
  140.9412   80.1305  221.0189 H   0  0  0  0  0  0  0  0  0  0  0  0
  142.0242   80.6546  218.7502 H   0  0  0  0  0  0  0  0  0  0  0  0
  143.3200   79.3270  216.9210 H   0  0  0  0  0  0  0  0  0  0  0  0
  144.0709   76.7183  216.5451 H   0  0  0  0  0  0  0  0  0  0  0  0
  143.9813   74.4371  217.6106 H   0  0  0  0  0  0  0  0  0  0  0  0
  142.8265   74.1189  219.8122 H   0  0  0  0  0  0  0  0  0  0  0  0
  141.7435   76.0821  220.9678 H   0  0  0  0  0  0  0  0  0  0  0  0
  1  2  2  0
  2  3  2  0
  2  4  1  0
  4  5  1  0
  5  6  2  0
  6  7  1  0
  7  8  2  0
  8  9  1  0
  9 10  2  0
  2 11  1  0
 11 12  1  0
 12 13  1  0
 13 14  2  0
 14 15  1  0
 15 16  2  0
 16 17  1  0
 17 18  2  0
 18 19  1  0
 19 20  1  0
 20 21  2  0
 21 22  1  0
 22 23  1  0
 23 24  2  0
 24 25  1  0
 25 26  2  0
 26 27  1  0
 27 28  2  0
 10  5  1  0
 19 11  1  0
 28 20  1  0
 18 13  1  0
 28 23  1  0
  4 29  1  0
  4 30  1  0
  6 31  1  0
  7 32  1  0
  8 33  1  0
  9 34  1  0
 10 35  1  0
 12 36  1  0
 12 37  1  0
 14 38  1  0
 15 39  1  0
 16 40  1  0
 17 41  1  0
 19 42  1  6
 21 43  1  0
 22 44  1  0
 24 45  1  0
 25 46  1  0
 26 47  1  0
 27 48  1  0
M  END
>  <meeko>  (4) 
{"free_energy": -7.11, "intermolecular_energy": -8.31, "internal_energy": -2.49, "cluster_size": 9, "cluster_id": 3, "rank_in_cluster": 1}

$$$$

     RDKit          3D

 48 52  0  0  0  0  0  0  0  0999 V2000
  140.9540   74.8890  221.9630 O   0  0  0  0  0  0  0  0  0  0  0  0
  140.4450   75.4490  220.6640 S   0  0  0  0  0  0  0  0  0  0  0  0
  139.0500   74.9390  220.4320 O   0  0  0  0  0  0  0  0  0  0  0  0
  141.5340   74.8750  219.3660 C   0  0  0  0  0  0  0  0  0  0  0  0
  142.8000   74.2840  219.9220 C   0  0  0  0  0  0  0  0  0  0  0  0
  142.8340   72.9420  220.3350 C   0  0  0  0  0  0  0  0  0  0  0  0
  144.0190   72.3850  220.8240 C   0  0  0  0  0  0  0  0  0  0  0  0
  145.1770   73.1630  220.9060 C   0  0  0  0  0  0  0  0  0  0  0  0
  145.1520   74.5000  220.5020 C   0  0  0  0  0  0  0  0  0  0  0  0
  143.9690   75.0620  220.0120 C   0  0  0  0  0  0  0  0  0  0  0  0
  140.4460   77.1980  220.7550 N   0  0  0  0  0  0  0  0  0  0  0  0
  139.6980   77.6990  221.9310 C   0  0  0  0  0  0  0  0  0  0  0  0
  140.5990   78.6580  222.5990 C   0  0  0  0  0  0  0  0  0  0  0  0
  140.3370   79.4450  223.7220 C   0  0  0  0  0  0  0  0  0  0  0  0
  141.3600   80.2750  224.2110 C   0  0  0  0  0  0  0  0  0  0  0  0
  142.6180   80.2940  223.5790 C   0  0  0  0  0  0  0  0  0  0  0  0
  142.8540   79.4860  222.4550 C   0  0  0  0  0  0  0  0  0  0  0  0
  141.8130   78.6830  221.9800 C   0  0  0  0  0  0  0  0  0  0  0  0
  141.8280   77.7290  220.8460 C   0  0  2  0  0  0  0  0  0  0  0  0
  142.1920   78.4320  219.5680 C   0  0  0  0  0  0  0  0  0  0  0  0
  142.8130   77.8700  218.4540 C   0  0  0  0  0  0  0  0  0  0  0  0
  142.9120   78.7790  217.4580 N   0  0  0  0  0  0  0  0  0  0  0  0
  142.3460   79.9050  217.9240 C   0  0  0  0  0  0  0  0  0  0  0  0
  142.1900   81.1150  217.2480 C   0  0  0  0  0  0  0  0  0  0  0  0
  141.5420   82.1660  217.9220 C   0  0  0  0  0  0  0  0  0  0  0  0
  141.0660   81.9860  219.2400 C   0  0  0  0  0  0  0  0  0  0  0  0
  141.2360   80.7540  219.8970 C   0  0  0  0  0  0  0  0  0  0  0  0
  141.8890   79.7320  219.2060 C   0  0  0  0  0  0  0  0  0  0  0  0
  141.0116   74.1076  218.7760 H   0  0  0  0  0  0  0  0  0  0  0  0
  141.8049   75.7377  218.7396 H   0  0  0  0  0  0  0  0  0  0  0  0
  141.9242   72.3268  220.2734 H   0  0  0  0  0  0  0  0  0  0  0  0
  144.0401   71.3330  221.1447 H   0  0  0  0  0  0  0  0  0  0  0  0
  146.1091   72.7221  221.2891 H   0  0  0  0  0  0  0  0  0  0  0  0
  146.0639   75.1114  220.5694 H   0  0  0  0  0  0  0  0  0  0  0  0
  143.9522   76.1155  219.6959 H   0  0  0  0  0  0  0  0  0  0  0  0
  138.7727   78.2008  221.6116 H   0  0  0  0  0  0  0  0  0  0  0  0
  139.4053   76.8802  222.6047 H   0  0  0  0  0  0  0  0  0  0  0  0
  139.3529   79.4160  224.2125 H   0  0  0  0  0  0  0  0  0  0  0  0
  141.1776   80.9113  225.0895 H   0  0  0  0  0  0  0  0  0  0  0  0
  143.4173   80.9429  223.9663 H   0  0  0  0  0  0  0  0  0  0  0  0
  143.8360   79.4850  221.9594 H   0  0  0  0  0  0  0  0  0  0  0  0
  142.5691   76.9310  221.0009 H   0  0  0  0  0  0  0  0  0  0  0  0
  143.1723   76.8321  218.3935 H   0  0  0  0  0  0  0  0  0  0  0  0
  143.3280   78.6270  216.5120 H   0  0  0  0  0  0  0  0  0  0  0  0
  142.5618   81.2433  216.2207 H   0  0  0  0  0  0  0  0  0  0  0  0
  141.4049   83.1348  217.4194 H   0  0  0  0  0  0  0  0  0  0  0  0
  140.5591   82.8149  219.7558 H   0  0  0  0  0  0  0  0  0  0  0  0
  140.8665   80.6009  220.9217 H   0  0  0  0  0  0  0  0  0  0  0  0
  1  2  2  0
  2  3  2  0
  2  4  1  0
  4  5  1  0
  5  6  2  0
  6  7  1  0
  7  8  2  0
  8  9  1  0
  9 10  2  0
  2 11  1  0
 11 12  1  0
 12 13  1  0
 13 14  2  0
 14 15  1  0
 15 16  2  0
 16 17  1  0
 17 18  2  0
 18 19  1  0
 19 20  1  0
 20 21  2  0
 21 22  1  0
 22 23  1  0
 23 24  2  0
 24 25  1  0
 25 26  2  0
 26 27  1  0
 27 28  2  0
 10  5  1  0
 19 11  1  0
 28 20  1  0
 18 13  1  0
 28 23  1  0
  4 29  1  0
  4 30  1  0
  6 31  1  0
  7 32  1  0
  8 33  1  0
  9 34  1  0
 10 35  1  0
 12 36  1  0
 12 37  1  0
 14 38  1  0
 15 39  1  0
 16 40  1  0
 17 41  1  0
 19 42  1  1
 21 43  1  0
 22 44  1  0
 24 45  1  0
 25 46  1  0
 26 47  1  0
 27 48  1  0
M  END
>  <meeko>  (5) 
{"free_energy": -8.14, "intermolecular_energy": -9.34, "internal_energy": -1.8, "cluster_size": 6, "cluster_id": 2, "rank_in_cluster": 1}

$$$$

     RDKit          3D

 48 52  0  0  0  0  0  0  0  0999 V2000
  142.3890   79.8570  224.4960 O   0  0  0  0  0  0  0  0  0  0  0  0
  142.5690   80.0440  223.0150 S   0  0  0  0  0  0  0  0  0  0  0  0
  144.0340   80.2150  222.7240 O   0  0  0  0  0  0  0  0  0  0  0  0
  141.6730   81.5200  222.5460 C   0  0  0  0  0  0  0  0  0  0  0  0
  140.1900   81.3500  222.7190 C   0  0  0  0  0  0  0  0  0  0  0  0
  139.3020   81.8510  221.7510 C   0  0  0  0  0  0  0  0  0  0  0  0
  137.9240   81.6670  221.8980 C   0  0  0  0  0  0  0  0  0  0  0  0
  137.4220   80.9850  223.0100 C   0  0  0  0  0  0  0  0  0  0  0  0
  138.2980   80.4880  223.9790 C   0  0  0  0  0  0  0  0  0  0  0  0
  139.6770   80.6690  223.8370 C   0  0  0  0  0  0  0  0  0  0  0  0
  141.9430   78.6390  222.1790 N   0  0  0  0  0  0  0  0  0  0  0  0
  141.1110   77.7870  223.0600 C   0  0  0  0  0  0  0  0  0  0  0  0
  139.8580   77.5490  222.3190 C   0  0  0  0  0  0  0  0  0  0  0  0
  138.7720   76.7560  222.6970 C   0  0  0  0  0  0  0  0  0  0  0  0
  137.6580   76.6960  221.8430 C   0  0  0  0  0  0  0  0  0  0  0  0
  137.6460   77.4320  220.6440 C   0  0  0  0  0  0  0  0  0  0  0  0
  138.7500   78.2260  220.2920 C   0  0  0  0  0  0  0  0  0  0  0  0
  139.8520   78.2540  221.1530 C   0  0  0  0  0  0  0  0  0  0  0  0
  141.1050   79.0340  221.0200 C   0  0  2  0  0  0  0  0  0  0  0  0
  141.8100   78.6900  219.7370 C   0  0  0  0  0  0  0  0  0  0  0  0
  142.2020   79.5780  218.7370 C   0  0  0  0  0  0  0  0  0  0  0  0
  142.8810   78.9270  217.7660 N   0  0  0  0  0  0  0  0  0  0  0  0
  142.9350   77.6400  218.1490 C   0  0  0  0  0  0  0  0  0  0  0  0
  143.5550   76.5850  217.4800 C   0  0  0  0  0  0  0  0  0  0  0  0
  143.5120   75.3120  218.0760 C   0  0  0  0  0  0  0  0  0  0  0  0
  142.8600   75.1230  219.3150 C   0  0  0  0  0  0  0  0  0  0  0  0
  142.2450   76.2060  219.9690 C   0  0  0  0  0  0  0  0  0  0  0  0
  142.2980   77.4560  219.3500 C   0  0  0  0  0  0  0  0  0  0  0  0
  142.0114   82.3569  223.1745 H   0  0  0  0  0  0  0  0  0  0  0  0
  141.8731   81.7186  221.4828 H   0  0  0  0  0  0  0  0  0  0  0  0
  139.6928   82.3896  220.8751 H   0  0  0  0  0  0  0  0  0  0  0  0
  137.2335   82.0597  221.1371 H   0  0  0  0  0  0  0  0  0  0  0  0
  136.3375   80.8394  223.1225 H   0  0  0  0  0  0  0  0  0  0  0  0
  137.9018   79.9535  224.8549 H   0  0  0  0  0  0  0  0  0  0  0  0
  140.3630   80.2773  224.6025 H   0  0  0  0  0  0  0  0  0  0  0  0
  141.6215   76.8346  223.2658 H   0  0  0  0  0  0  0  0  0  0  0  0
  140.9229   78.2691  224.0307 H   0  0  0  0  0  0  0  0  0  0  0  0
  138.7886   76.1917  223.6411 H   0  0  0  0  0  0  0  0  0  0  0  0
  136.7931   76.0721  222.1125 H   0  0  0  0  0  0  0  0  0  0  0  0
  136.7698   77.3855  219.9805 H   0  0  0  0  0  0  0  0  0  0  0  0
  138.7479   78.8120  219.3611 H   0  0  0  0  0  0  0  0  0  0  0  0
  140.9058   80.1157  221.0013 H   0  0  0  0  0  0  0  0  0  0  0  0
  141.9888   80.6572  218.7377 H   0  0  0  0  0  0  0  0  0  0  0  0
  143.2940   79.3460  216.9030 H   0  0  0  0  0  0  0  0  0  0  0  0
  144.0616   76.7436  216.5166 H   0  0  0  0  0  0  0  0  0  0  0  0
  143.9893   74.4575  217.5740 H   0  0  0  0  0  0  0  0  0  0  0  0
  142.8331   74.1225  219.7713 H   0  0  0  0  0  0  0  0  0  0  0  0
  141.7389   76.0722  220.9365 H   0  0  0  0  0  0  0  0  0  0  0  0
  1  2  2  0
  2  3  2  0
  2  4  1  0
  4  5  1  0
  5  6  2  0
  6  7  1  0
  7  8  2  0
  8  9  1  0
  9 10  2  0
  2 11  1  0
 11 12  1  0
 12 13  1  0
 13 14  2  0
 14 15  1  0
 15 16  2  0
 16 17  1  0
 17 18  2  0
 18 19  1  0
 19 20  1  0
 20 21  2  0
 21 22  1  0
 22 23  1  0
 23 24  2  0
 24 25  1  0
 25 26  2  0
 26 27  1  0
 27 28  2  0
 10  5  1  0
 19 11  1  0
 28 20  1  0
 18 13  1  0
 28 23  1  0
  4 29  1  0
  4 30  1  0
  6 31  1  0
  7 32  1  0
  8 33  1  0
  9 34  1  0
 10 35  1  0
 12 36  1  0
 12 37  1  0
 14 38  1  0
 15 39  1  0
 16 40  1  0
 17 41  1  0
 19 42  1  6
 21 43  1  0
 22 44  1  0
 24 45  1  0
 25 46  1  0
 26 47  1  0
 27 48  1  0
M  END
>  <meeko>  (6) 
{"free_energy": -7.09, "intermolecular_energy": -8.28, "internal_energy": -2.51, "cluster_size": 9, "cluster_id": 3, "rank_in_cluster": 8}

$$$$

     RDKit          3D

 48 52  0  0  0  0  0  0  0  0999 V2000
  142.3880   79.8480  224.5170 O   0  0  0  0  0  0  0  0  0  0  0  0
  142.5660   80.0350  223.0360 S   0  0  0  0  0  0  0  0  0  0  0  0
  144.0320   80.1950  222.7440 O   0  0  0  0  0  0  0  0  0  0  0  0
  141.6800   81.5180  222.5700 C   0  0  0  0  0  0  0  0  0  0  0  0
  140.1950   81.3560  222.7400 C   0  0  0  0  0  0  0  0  0  0  0  0
  139.3130   81.8570  221.7670 C   0  0  0  0  0  0  0  0  0  0  0  0
  137.9340   81.6800  221.9100 C   0  0  0  0  0  0  0  0  0  0  0  0
  137.4250   81.0050  223.0230 C   0  0  0  0  0  0  0  0  0  0  0  0
  138.2950   80.5080  223.9970 C   0  0  0  0  0  0  0  0  0  0  0  0
  139.6760   80.6820  223.8590 C   0  0  0  0  0  0  0  0  0  0  0  0
  141.9280   78.6350  222.2000 N   0  0  0  0  0  0  0  0  0  0  0  0
  141.0720   77.8010  223.0760 C   0  0  0  0  0  0  0  0  0  0  0  0
  139.8250   77.5790  222.3200 C   0  0  0  0  0  0  0  0  0  0  0  0
  138.7220   76.8050  222.6890 C   0  0  0  0  0  0  0  0  0  0  0  0
  137.6180   76.7580  221.8210 C   0  0  0  0  0  0  0  0  0  0  0  0
  137.6330   77.4860  220.6170 C   0  0  0  0  0  0  0  0  0  0  0  0
  138.7540   78.2610  220.2760 C   0  0  0  0  0  0  0  0  0  0  0  0
  139.8450   78.2770  221.1500 C   0  0  0  0  0  0  0  0  0  0  0  0
  141.1120   79.0360  221.0290 C   0  0  2  0  0  0  0  0  0  0  0  0
  141.8270   78.6740  219.7570 C   0  0  0  0  0  0  0  0  0  0  0  0
  142.2270   79.5470  218.7470 C   0  0  0  0  0  0  0  0  0  0  0  0
  142.9150   78.8820  217.7920 N   0  0  0  0  0  0  0  0  0  0  0  0
  142.9660   77.6010  218.1940 C   0  0  0  0  0  0  0  0  0  0  0  0
  143.5920   76.5360  217.5450 C   0  0  0  0  0  0  0  0  0  0  0  0
  143.5440   75.2720  218.1600 C   0  0  0  0  0  0  0  0  0  0  0  0
  142.8820   75.1010  219.3960 C   0  0  0  0  0  0  0  0  0  0  0  0
  142.2610   76.1940  220.0290 C   0  0  0  0  0  0  0  0  0  0  0  0
  142.3190   77.4340  219.3920 C   0  0  0  0  0  0  0  0  0  0  0  0
  142.0222   82.3509  223.2018 H   0  0  0  0  0  0  0  0  0  0  0  0
  141.8833   81.7190  221.5078 H   0  0  0  0  0  0  0  0  0  0  0  0
  139.7093   82.3901  220.8902 H   0  0  0  0  0  0  0  0  0  0  0  0
  137.2479   82.0727  221.1451 H   0  0  0  0  0  0  0  0  0  0  0  0
  136.3394   80.8650  223.1322 H   0  0  0  0  0  0  0  0  0  0  0  0
  137.8931   79.9790  224.8737 H   0  0  0  0  0  0  0  0  0  0  0  0
  140.3578   80.2903  224.6283 H   0  0  0  0  0  0  0  0  0  0  0  0
  141.5648   76.8419  223.2934 H   0  0  0  0  0  0  0  0  0  0  0  0
  140.8798   78.2909  224.0419 H   0  0  0  0  0  0  0  0  0  0  0  0
  138.7179   76.2458  223.6363 H   0  0  0  0  0  0  0  0  0  0  0  0
  136.7395   76.1503  222.0835 H   0  0  0  0  0  0  0  0  0  0  0  0
  136.7655   77.4482  219.9417 H   0  0  0  0  0  0  0  0  0  0  0  0
  138.7729   78.8422  219.3423 H   0  0  0  0  0  0  0  0  0  0  0  0
  140.9308   80.1206  221.0021 H   0  0  0  0  0  0  0  0  0  0  0  0
  142.0129   80.6258  218.7293 H   0  0  0  0  0  0  0  0  0  0  0  0
  143.3350   79.2890  216.9260 H   0  0  0  0  0  0  0  0  0  0  0  0
  144.1064   76.6804  216.5835 H   0  0  0  0  0  0  0  0  0  0  0  0
  144.0256   74.4102  217.6748 H   0  0  0  0  0  0  0  0  0  0  0  0
  142.8516   74.1073  219.8668 H   0  0  0  0  0  0  0  0  0  0  0  0
  141.7469   76.0746  220.9941 H   0  0  0  0  0  0  0  0  0  0  0  0
  1  2  2  0
  2  3  2  0
  2  4  1  0
  4  5  1  0
  5  6  2  0
  6  7  1  0
  7  8  2  0
  8  9  1  0
  9 10  2  0
  2 11  1  0
 11 12  1  0
 12 13  1  0
 13 14  2  0
 14 15  1  0
 15 16  2  0
 16 17  1  0
 17 18  2  0
 18 19  1  0
 19 20  1  0
 20 21  2  0
 21 22  1  0
 22 23  1  0
 23 24  2  0
 24 25  1  0
 25 26  2  0
 26 27  1  0
 27 28  2  0
 10  5  1  0
 19 11  1  0
 28 20  1  0
 18 13  1  0
 28 23  1  0
  4 29  1  0
  4 30  1  0
  6 31  1  0
  7 32  1  0
  8 33  1  0
  9 34  1  0
 10 35  1  0
 12 36  1  0
 12 37  1  0
 14 38  1  0
 15 39  1  0
 16 40  1  0
 17 41  1  0
 19 42  1  6
 21 43  1  0
 22 44  1  0
 24 45  1  0
 25 46  1  0
 26 47  1  0
 27 48  1  0
M  END
>  <meeko>  (7) 
{"free_energy": -7.08, "intermolecular_energy": -8.27, "internal_energy": -2.52, "cluster_size": 9, "cluster_id": 3, "rank_in_cluster": 9}

$$$$

     RDKit          3D

 48 52  0  0  0  0  0  0  0  0999 V2000
  142.4030   79.8680  224.5200 O   0  0  0  0  0  0  0  0  0  0  0  0
  142.6000   80.0500  223.0400 S   0  0  0  0  0  0  0  0  0  0  0  0
  144.0700   80.1990  222.7640 O   0  0  0  0  0  0  0  0  0  0  0  0
  141.7290   81.5360  222.5590 C   0  0  0  0  0  0  0  0  0  0  0  0
  140.2430   81.3930  222.7360 C   0  0  0  0  0  0  0  0  0  0  0  0
  139.3620   81.9300  221.7810 C   0  0  0  0  0  0  0  0  0  0  0  0
  137.9810   81.7720  221.9300 C   0  0  0  0  0  0  0  0  0  0  0  0
  137.4700   81.0780  223.0310 C   0  0  0  0  0  0  0  0  0  0  0  0
  138.3380   80.5450  223.9870 C   0  0  0  0  0  0  0  0  0  0  0  0
  139.7200   80.7020  223.8430 C   0  0  0  0  0  0  0  0  0  0  0  0
  141.9630   78.6510  222.2010 N   0  0  0  0  0  0  0  0  0  0  0  0
  141.1240   77.8040  223.0810 C   0  0  0  0  0  0  0  0  0  0  0  0
  139.8690   77.5780  222.3390 C   0  0  0  0  0  0  0  0  0  0  0  0
  138.7770   76.7930  222.7150 C   0  0  0  0  0  0  0  0  0  0  0  0
  137.6630   76.7430  221.8600 C   0  0  0  0  0  0  0  0  0  0  0  0
  137.6570   77.4810  220.6620 C   0  0  0  0  0  0  0  0  0  0  0  0
  138.7680   78.2670  220.3130 C   0  0  0  0  0  0  0  0  0  0  0  0
  139.8700   78.2840  221.1740 C   0  0  0  0  0  0  0  0  0  0  0  0
  141.1290   79.0540  221.0440 C   0  0  2  0  0  0  0  0  0  0  0  0
  141.8310   78.7070  219.7600 C   0  0  0  0  0  0  0  0  0  0  0  0
  142.2220   79.5930  218.7570 C   0  0  0  0  0  0  0  0  0  0  0  0
  142.8990   78.9390  217.7870 N   0  0  0  0  0  0  0  0  0  0  0  0
  142.9540   77.6530  218.1720 C   0  0  0  0  0  0  0  0  0  0  0  0
  143.5720   76.5960  217.5050 C   0  0  0  0  0  0  0  0  0  0  0  0
  143.5300   75.3250  218.1040 C   0  0  0  0  0  0  0  0  0  0  0  0
  142.8800   75.1390  219.3450 C   0  0  0  0  0  0  0  0  0  0  0  0
  142.2660   76.2240  219.9970 C   0  0  0  0  0  0  0  0  0  0  0  0
  142.3190   77.4720  219.3750 C   0  0  0  0  0  0  0  0  0  0  0  0
  142.0827   82.3728  223.1792 H   0  0  0  0  0  0  0  0  0  0  0  0
  141.9306   81.7213  221.4936 H   0  0  0  0  0  0  0  0  0  0  0  0
  139.7607   82.4764  220.9135 H   0  0  0  0  0  0  0  0  0  0  0  0
  137.2957   82.1941  221.1802 H   0  0  0  0  0  0  0  0  0  0  0  0
  136.3832   80.9516  223.1445 H   0  0  0  0  0  0  0  0  0  0  0  0
  137.9340   80.0014  224.8537 H   0  0  0  0  0  0  0  0  0  0  0  0
  140.4006   80.2832  224.5989 H   0  0  0  0  0  0  0  0  0  0  0  0
  141.6266   76.8470  223.2850 H   0  0  0  0  0  0  0  0  0  0  0  0
  140.9401   78.2855  224.0528 H   0  0  0  0  0  0  0  0  0  0  0  0
  138.7886   76.2271  223.6582 H   0  0  0  0  0  0  0  0  0  0  0  0
  136.7932   76.1252  222.1280 H   0  0  0  0  0  0  0  0  0  0  0  0
  136.7811   77.4425  219.9977 H   0  0  0  0  0  0  0  0  0  0  0  0
  138.7710   78.8556  219.3837 H   0  0  0  0  0  0  0  0  0  0  0  0
  140.9386   80.1373  221.0285 H   0  0  0  0  0  0  0  0  0  0  0  0
  142.0095   80.6723  218.7553 H   0  0  0  0  0  0  0  0  0  0  0  0
  143.3120   79.3560  216.9220 H   0  0  0  0  0  0  0  0  0  0  0  0
  144.0767   76.7518  216.5401 H   0  0  0  0  0  0  0  0  0  0  0  0
  144.0064   74.4692  217.6033 H   0  0  0  0  0  0  0  0  0  0  0  0
  142.8540   74.1397  219.8040 H   0  0  0  0  0  0  0  0  0  0  0  0
  141.7608   76.0928  220.9653 H   0  0  0  0  0  0  0  0  0  0  0  0
  1  2  2  0
  2  3  2  0
  2  4  1  0
  4  5  1  0
  5  6  2  0
  6  7  1  0
  7  8  2  0
  8  9  1  0
  9 10  2  0
  2 11  1  0
 11 12  1  0
 12 13  1  0
 13 14  2  0
 14 15  1  0
 15 16  2  0
 16 17  1  0
 17 18  2  0
 18 19  1  0
 19 20  1  0
 20 21  2  0
 21 22  1  0
 22 23  1  0
 23 24  2  0
 24 25  1  0
 25 26  2  0
 26 27  1  0
 27 28  2  0
 10  5  1  0
 19 11  1  0
 28 20  1  0
 18 13  1  0
 28 23  1  0
  4 29  1  0
  4 30  1  0
  6 31  1  0
  7 32  1  0
  8 33  1  0
  9 34  1  0
 10 35  1  0
 12 36  1  0
 12 37  1  0
 14 38  1  0
 15 39  1  0
 16 40  1  0
 17 41  1  0
 19 42  1  6
 21 43  1  0
 22 44  1  0
 24 45  1  0
 25 46  1  0
 26 47  1  0
 27 48  1  0
M  END
>  <meeko>  (8) 
{"free_energy": -7.1, "intermolecular_energy": -8.29, "internal_energy": -2.5, "cluster_size": 9, "cluster_id": 3, "rank_in_cluster": 5}

$$$$

     RDKit          3D

 48 52  0  0  0  0  0  0  0  0999 V2000
  134.6220   68.1070  224.2000 O   0  0  0  0  0  0  0  0  0  0  0  0
  135.3860   69.3920  224.3650 S   0  0  0  0  0  0  0  0  0  0  0  0
  135.2810   69.8340  225.7980 O   0  0  0  0  0  0  0  0  0  0  0  0
  134.6330   70.6080  223.2900 C   0  0  0  0  0  0  0  0  0  0  0  0
  134.9320   72.0110  223.7400 C   0  0  0  0  0  0  0  0  0  0  0  0
  135.7310   72.8530  222.9480 C   0  0  0  0  0  0  0  0  0  0  0  0
  135.9850   74.1670  223.3520 C   0  0  0  0  0  0  0  0  0  0  0  0
  135.4460   74.6480  224.5490 C   0  0  0  0  0  0  0  0  0  0  0  0
  134.6540   73.8170  225.3440 C   0  0  0  0  0  0  0  0  0  0  0  0
  134.3980   72.5010  224.9440 C   0  0  0  0  0  0  0  0  0  0  0  0
  137.0610   69.1240  223.9310 N   0  0  0  0  0  0  0  0  0  0  0  0
  137.3170   69.3870  222.4960 C   0  0  0  0  0  0  0  0  0  0  0  0
  138.4880   70.2830  222.4570 C   0  0  0  0  0  0  0  0  0  0  0  0
  139.1590   70.7740  221.3360 C   0  0  0  0  0  0  0  0  0  0  0  0
  140.2430   71.6460  221.5320 C   0  0  0  0  0  0  0  0  0  0  0  0
  140.6250   72.0160  222.8350 C   0  0  0  0  0  0  0  0  0  0  0  0
  139.9280   71.5110  223.9450 C   0  0  0  0  0  0  0  0  0  0  0  0
  138.8640   70.6320  223.7200 C   0  0  0  0  0  0  0  0  0  0  0  0
  137.9640   70.0020  224.7140 C   0  0  2  0  0  0  0  0  0  0  0  0
  138.7520   69.1800  225.6970 C   0  0  0  0  0  0  0  0  0  0  0  0
  138.8440   67.7900  225.7370 C   0  0  0  0  0  0  0  0  0  0  0  0
  139.7040   67.4010  226.7050 N   0  0  0  0  0  0  0  0  0  0  0  0
  140.1680   68.5300  227.2660 C   0  0  0  0  0  0  0  0  0  0  0  0
  141.1010   68.6400  228.2970 C   0  0  0  0  0  0  0  0  0  0  0  0
  141.4660   69.9310  228.7190 C   0  0  0  0  0  0  0  0  0  0  0  0
  140.9010   71.0710  228.1070 C   0  0  0  0  0  0  0  0  0  0  0  0
  139.9640   70.9310  227.0670 C   0  0  0  0  0  0  0  0  0  0  0  0
  139.6160   69.6380  226.6740 C   0  0  0  0  0  0  0  0  0  0  0  0
  135.0211   70.4707  222.2699 H   0  0  0  0  0  0  0  0  0  0  0  0
  133.5429   70.4637  223.3205 H   0  0  0  0  0  0  0  0  0  0  0  0
  136.1581   72.4768  222.0067 H   0  0  0  0  0  0  0  0  0  0  0  0
  136.6094   74.8230  222.7277 H   0  0  0  0  0  0  0  0  0  0  0  0
  135.6461   75.6825  224.8649 H   0  0  0  0  0  0  0  0  0  0  0  0
  134.2311   74.1974  226.2855 H   0  0  0  0  0  0  0  0  0  0  0  0
  133.7766   71.8476  225.5741 H   0  0  0  0  0  0  0  0  0  0  0  0
  137.5351   68.4476  221.9669 H   0  0  0  0  0  0  0  0  0  0  0  0
  136.4433   69.8393  222.0040 H   0  0  0  0  0  0  0  0  0  0  0  0
  138.8462   70.4848  220.3219 H   0  0  0  0  0  0  0  0  0  0  0  0
  140.7941   72.0402  220.6655 H   0  0  0  0  0  0  0  0  0  0  0  0
  141.4715   72.7024  222.9845 H   0  0  0  0  0  0  0  0  0  0  0  0
  140.2125   71.8002  224.9675 H   0  0  0  0  0  0  0  0  0  0  0  0
  137.4108   70.7572  225.2916 H   0  0  0  0  0  0  0  0  0  0  0  0
  138.2942   67.1056  225.0742 H   0  0  0  0  0  0  0  0  0  0  0  0
  139.9670   66.4210  226.9510 H   0  0  0  0  0  0  0  0  0  0  0  0
  141.5375   67.7454  228.7652 H   0  0  0  0  0  0  0  0  0  0  0  0
  142.1970   70.0534  229.5318 H   0  0  0  0  0  0  0  0  0  0  0  0
  141.1954   72.0753  228.4456 H   0  0  0  0  0  0  0  0  0  0  0  0
  139.5203   71.8117  226.5797 H   0  0  0  0  0  0  0  0  0  0  0  0
  1  2  2  0
  2  3  2  0
  2  4  1  0
  4  5  1  0
  5  6  2  0
  6  7  1  0
  7  8  2  0
  8  9  1  0
  9 10  2  0
  2 11  1  0
 11 12  1  0
 12 13  1  0
 13 14  2  0
 14 15  1  0
 15 16  2  0
 16 17  1  0
 17 18  2  0
 18 19  1  0
 19 20  1  0
 20 21  2  0
 21 22  1  0
 22 23  1  0
 23 24  2  0
 24 25  1  0
 25 26  2  0
 26 27  1  0
 27 28  2  0
 10  5  1  0
 19 11  1  0
 28 20  1  0
 18 13  1  0
 28 23  1  0
  4 29  1  0
  4 30  1  0
  6 31  1  0
  7 32  1  0
  8 33  1  0
  9 34  1  0
 10 35  1  0
 12 36  1  0
 12 37  1  0
 14 38  1  0
 15 39  1  0
 16 40  1  0
 17 41  1  0
 19 42  1  1
 21 43  1  0
 22 44  1  0
 24 45  1  0
 25 46  1  0
 26 47  1  0
 27 48  1  0
M  END
>  <meeko>  (9) 
{"free_energy": -8.03, "intermolecular_energy": -9.22, "internal_energy": -2.01, "cluster_size": 4, "cluster_id": 1, "rank_in_cluster": 4}

$$$$

     RDKit          3D

 48 52  0  0  0  0  0  0  0  0999 V2000
  140.9280   74.8900  221.9670 O   0  0  0  0  0  0  0  0  0  0  0  0
  140.4210   75.4530  220.6680 S   0  0  0  0  0  0  0  0  0  0  0  0
  139.0190   74.9590  220.4420 O   0  0  0  0  0  0  0  0  0  0  0  0
  141.4990   74.8640  219.3680 C   0  0  0  0  0  0  0  0  0  0  0  0
  142.7700   74.2810  219.9200 C   0  0  0  0  0  0  0  0  0  0  0  0
  142.8140   72.9370  220.3290 C   0  0  0  0  0  0  0  0  0  0  0  0
  144.0040   72.3870  220.8150 C   0  0  0  0  0  0  0  0  0  0  0  0
  145.1560   73.1730  220.8980 C   0  0  0  0  0  0  0  0  0  0  0  0
  145.1210   74.5110  220.4980 C   0  0  0  0  0  0  0  0  0  0  0  0
  143.9330   75.0660  220.0110 C   0  0  0  0  0  0  0  0  0  0  0  0
  140.4420   77.2020  220.7550 N   0  0  0  0  0  0  0  0  0  0  0  0
  139.7030   77.7140  221.9320 C   0  0  0  0  0  0  0  0  0  0  0  0
  140.6160   78.6640  222.5950 C   0  0  0  0  0  0  0  0  0  0  0  0
  140.3670   79.4570  223.7170 C   0  0  0  0  0  0  0  0  0  0  0  0
  141.4000   80.2760  224.2010 C   0  0  0  0  0  0  0  0  0  0  0  0
  142.6560   80.2790  223.5660 C   0  0  0  0  0  0  0  0  0  0  0  0
  142.8800   79.4670  222.4430 C   0  0  0  0  0  0  0  0  0  0  0  0
  141.8290   78.6740  221.9730 C   0  0  0  0  0  0  0  0  0  0  0  0
  141.8300   77.7180  220.8410 C   0  0  2  0  0  0  0  0  0  0  0  0
  142.1980   78.4140  219.5600 C   0  0  0  0  0  0  0  0  0  0  0  0
  142.8110   77.8420  218.4460 C   0  0  0  0  0  0  0  0  0  0  0  0
  142.9170   78.7480  217.4480 N   0  0  0  0  0  0  0  0  0  0  0  0
  142.3640   79.8810  217.9130 C   0  0  0  0  0  0  0  0  0  0  0  0
  142.2190   81.0910  217.2340 C   0  0  0  0  0  0  0  0  0  0  0  0
  141.5840   82.1500  217.9060 C   0  0  0  0  0  0  0  0  0  0  0  0
  141.1090   81.9790  219.2260 C   0  0  0  0  0  0  0  0  0  0  0  0
  141.2680   80.7460  219.8860 C   0  0  0  0  0  0  0  0  0  0  0  0
  141.9080   79.7160  219.1960 C   0  0  0  0  0  0  0  0  0  0  0  0
  140.9722   74.0889  218.7920 H   0  0  0  0  0  0  0  0  0  0  0  0
  141.7637   75.7192  218.7287 H   0  0  0  0  0  0  0  0  0  0  0  0
  141.9086   72.3154  220.2665 H   0  0  0  0  0  0  0  0  0  0  0  0
  144.0332   71.3342  221.1324 H   0  0  0  0  0  0  0  0  0  0  0  0
  146.0917   72.7378  221.2788 H   0  0  0  0  0  0  0  0  0  0  0  0
  146.0286   75.1288  220.5661 H   0  0  0  0  0  0  0  0  0  0  0  0
  143.9085   76.1203  219.6981 H   0  0  0  0  0  0  0  0  0  0  0  0
  138.7824   78.2253  221.6141 H   0  0  0  0  0  0  0  0  0  0  0  0
  139.4033   76.9000  222.6085 H   0  0  0  0  0  0  0  0  0  0  0  0
  139.3841   79.4406  224.2105 H   0  0  0  0  0  0  0  0  0  0  0  0
  141.2271   80.9166  225.0784 H   0  0  0  0  0  0  0  0  0  0  0  0
  143.4639   80.9190  223.9505 H   0  0  0  0  0  0  0  0  0  0  0  0
  143.8603   79.4550  221.9441 H   0  0  0  0  0  0  0  0  0  0  0  0
  142.5629   76.9124  220.9956 H   0  0  0  0  0  0  0  0  0  0  0  0
  143.1594   76.8003  218.3873 H   0  0  0  0  0  0  0  0  0  0  0  0
  143.3290   78.5900  216.5010 H   0  0  0  0  0  0  0  0  0  0  0  0
  142.5897   81.2126  216.2055 H   0  0  0  0  0  0  0  0  0  0  0  0
  141.4559   83.1187  217.4008 H   0  0  0  0  0  0  0  0  0  0  0  0
  140.6120   82.8145  219.7407 H   0  0  0  0  0  0  0  0  0  0  0  0
  140.8998   80.5993  220.9121 H   0  0  0  0  0  0  0  0  0  0  0  0
  1  2  2  0
  2  3  2  0
  2  4  1  0
  4  5  1  0
  5  6  2  0
  6  7  1  0
  7  8  2  0
  8  9  1  0
  9 10  2  0
  2 11  1  0
 11 12  1  0
 12 13  1  0
 13 14  2  0
 14 15  1  0
 15 16  2  0
 16 17  1  0
 17 18  2  0
 18 19  1  0
 19 20  1  0
 20 21  2  0
 21 22  1  0
 22 23  1  0
 23 24  2  0
 24 25  1  0
 25 26  2  0
 26 27  1  0
 27 28  2  0
 10  5  1  0
 19 11  1  0
 28 20  1  0
 18 13  1  0
 28 23  1  0
  4 29  1  0
  4 30  1  0
  6 31  1  0
  7 32  1  0
  8 33  1  0
  9 34  1  0
 10 35  1  0
 12 36  1  0
 12 37  1  0
 14 38  1  0
 15 39  1  0
 16 40  1  0
 17 41  1  0
 19 42  1  1
 21 43  1  0
 22 44  1  0
 24 45  1  0
 25 46  1  0
 26 47  1  0
 27 48  1  0
M  END
>  <meeko>  (10) 
{"free_energy": -8.13, "intermolecular_energy": -9.33, "internal_energy": -1.81, "cluster_size": 6, "cluster_id": 2, "rank_in_cluster": 2}

$$$$

     RDKit          3D

 48 52  0  0  0  0  0  0  0  0999 V2000
  140.9320   74.8750  221.9630 O   0  0  0  0  0  0  0  0  0  0  0  0
  140.4260   75.4430  220.6660 S   0  0  0  0  0  0  0  0  0  0  0  0
  139.0250   74.9470  220.4370 O   0  0  0  0  0  0  0  0  0  0  0  0
  141.5060   74.8590  219.3650 C   0  0  0  0  0  0  0  0  0  0  0  0
  142.7790   74.2780  219.9160 C   0  0  0  0  0  0  0  0  0  0  0  0
  142.8260   72.9320  220.3190 C   0  0  0  0  0  0  0  0  0  0  0  0
  144.0170   72.3840  220.8050 C   0  0  0  0  0  0  0  0  0  0  0  0
  145.1670   73.1740  220.8920 C   0  0  0  0  0  0  0  0  0  0  0  0
  145.1280   74.5140  220.4980 C   0  0  0  0  0  0  0  0  0  0  0  0
  143.9390   75.0670  220.0120 C   0  0  0  0  0  0  0  0  0  0  0  0
  140.4450   77.1910  220.7590 N   0  0  0  0  0  0  0  0  0  0  0  0
  139.7000   77.6980  221.9360 C   0  0  0  0  0  0  0  0  0  0  0  0
  140.6100   78.6470  222.6060 C   0  0  0  0  0  0  0  0  0  0  0  0
  140.3550   79.4350  223.7300 C   0  0  0  0  0  0  0  0  0  0  0  0
  141.3860   80.2540  224.2210 C   0  0  0  0  0  0  0  0  0  0  0  0
  142.6440   80.2600  223.5910 C   0  0  0  0  0  0  0  0  0  0  0  0
  142.8740   79.4520  222.4660 C   0  0  0  0  0  0  0  0  0  0  0  0
  141.8250   78.6600  221.9880 C   0  0  0  0  0  0  0  0  0  0  0  0
  141.8320   77.7080  220.8530 C   0  0  2  0  0  0  0  0  0  0  0  0
  142.2050   78.4090  219.5760 C   0  0  0  0  0  0  0  0  0  0  0  0
  142.8170   77.8410  218.4600 C   0  0  0  0  0  0  0  0  0  0  0  0
  142.9270   78.7510  217.4670 N   0  0  0  0  0  0  0  0  0  0  0  0
  142.3790   79.8840  217.9370 C   0  0  0  0  0  0  0  0  0  0  0  0
  142.2400   81.0970  217.2650 C   0  0  0  0  0  0  0  0  0  0  0  0
  141.6080   82.1560  217.9410 C   0  0  0  0  0  0  0  0  0  0  0  0
  141.1310   81.9800  219.2590 C   0  0  0  0  0  0  0  0  0  0  0  0
  141.2840   80.7430  219.9130 C   0  0  0  0  0  0  0  0  0  0  0  0
  141.9200   79.7140  219.2190 C   0  0  0  0  0  0  0  0  0  0  0  0
  140.9812   74.0837  218.7876 H   0  0  0  0  0  0  0  0  0  0  0  0
  141.7687   75.7161  218.7276 H   0  0  0  0  0  0  0  0  0  0  0  0
  141.9227   72.3078  220.2518 H   0  0  0  0  0  0  0  0  0  0  0  0
  144.0491   71.3303  221.1192 H   0  0  0  0  0  0  0  0  0  0  0  0
  146.1040   72.7401  221.2712 H   0  0  0  0  0  0  0  0  0  0  0  0
  146.0334   75.1345  220.5702 H   0  0  0  0  0  0  0  0  0  0  0  0
  143.9111   76.1226  219.7038 H   0  0  0  0  0  0  0  0  0  0  0  0
  138.7800   78.2094  221.6165 H   0  0  0  0  0  0  0  0  0  0  0  0
  139.3984   76.8813  222.6083 H   0  0  0  0  0  0  0  0  0  0  0  0
  139.3702   79.4152  224.2197 H   0  0  0  0  0  0  0  0  0  0  0  0
  141.2091   80.8917  225.0997 H   0  0  0  0  0  0  0  0  0  0  0  0
  143.4496   80.8995  223.9809 H   0  0  0  0  0  0  0  0  0  0  0  0
  143.8567   79.4421  221.9719 H   0  0  0  0  0  0  0  0  0  0  0  0
  142.5650   76.9026  221.0081 H   0  0  0  0  0  0  0  0  0  0  0  0
  143.1620   76.7984  218.3964 H   0  0  0  0  0  0  0  0  0  0  0  0
  143.3400   78.5960  216.5200 H   0  0  0  0  0  0  0  0  0  0  0  0
  142.6130   81.2222  216.2378 H   0  0  0  0  0  0  0  0  0  0  0  0
  141.4843   83.1276  217.4402 H   0  0  0  0  0  0  0  0  0  0  0  0
  140.6369   82.8149  219.7775 H   0  0  0  0  0  0  0  0  0  0  0  0
  140.9140   80.5928  220.9380 H   0  0  0  0  0  0  0  0  0  0  0  0
  1  2  2  0
  2  3  2  0
  2  4  1  0
  4  5  1  0
  5  6  2  0
  6  7  1  0
  7  8  2  0
  8  9  1  0
  9 10  2  0
  2 11  1  0
 11 12  1  0
 12 13  1  0
 13 14  2  0
 14 15  1  0
 15 16  2  0
 16 17  1  0
 17 18  2  0
 18 19  1  0
 19 20  1  0
 20 21  2  0
 21 22  1  0
 22 23  1  0
 23 24  2  0
 24 25  1  0
 25 26  2  0
 26 27  1  0
 27 28  2  0
 10  5  1  0
 19 11  1  0
 28 20  1  0
 18 13  1  0
 28 23  1  0
  4 29  1  0
  4 30  1  0
  6 31  1  0
  7 32  1  0
  8 33  1  0
  9 34  1  0
 10 35  1  0
 12 36  1  0
 12 37  1  0
 14 38  1  0
 15 39  1  0
 16 40  1  0
 17 41  1  0
 19 42  1  1
 21 43  1  0
 22 44  1  0
 24 45  1  0
 25 46  1  0
 26 47  1  0
 27 48  1  0
M  END
>  <meeko>  (11) 
{"free_energy": -8.13, "intermolecular_energy": -9.33, "internal_energy": -1.8, "cluster_size": 6, "cluster_id": 2, "rank_in_cluster": 3}

$$$$

     RDKit          3D

 48 52  0  0  0  0  0  0  0  0999 V2000
  134.6130   68.1410  224.1400 O   0  0  0  0  0  0  0  0  0  0  0  0
  135.4110   69.3810  224.4360 S   0  0  0  0  0  0  0  0  0  0  0  0
  135.3090   69.6820  225.9050 O   0  0  0  0  0  0  0  0  0  0  0  0
  134.7010   70.7180  223.4830 C   0  0  0  0  0  0  0  0  0  0  0  0
  134.6950   72.0090  224.2530 C   0  0  0  0  0  0  0  0  0  0  0  0
  135.4920   73.0880  223.8330 C   0  0  0  0  0  0  0  0  0  0  0  0
  135.4650   74.2980  224.5330 C   0  0  0  0  0  0  0  0  0  0  0  0
  134.6440   74.4400  225.6550 C   0  0  0  0  0  0  0  0  0  0  0  0
  133.8510   73.3710  226.0820 C   0  0  0  0  0  0  0  0  0  0  0  0
  133.8760   72.1590  225.3860 C   0  0  0  0  0  0  0  0  0  0  0  0
  137.0820   69.1080  223.9860 N   0  0  0  0  0  0  0  0  0  0  0  0
  137.3240   69.3680  222.5470 C   0  0  0  0  0  0  0  0  0  0  0  0
  138.4960   70.2620  222.4950 C   0  0  0  0  0  0  0  0  0  0  0  0
  139.1570   70.7490  221.3650 C   0  0  0  0  0  0  0  0  0  0  0  0
  140.2440   71.6200  221.5480 C   0  0  0  0  0  0  0  0  0  0  0  0
  140.6400   71.9920  222.8460 C   0  0  0  0  0  0  0  0  0  0  0  0
  139.9530   71.4910  223.9640 C   0  0  0  0  0  0  0  0  0  0  0  0
  138.8860   70.6130  223.7530 C   0  0  0  0  0  0  0  0  0  0  0  0
  137.9940   69.9870  224.7570 C   0  0  2  0  0  0  0  0  0  0  0  0
  138.7910   69.1660  225.7340 C   0  0  0  0  0  0  0  0  0  0  0  0
  138.8770   67.7760  225.7800 C   0  0  0  0  0  0  0  0  0  0  0  0
  139.7480   67.3880  226.7380 N   0  0  0  0  0  0  0  0  0  0  0  0
  140.2230   68.5170  227.2890 C   0  0  0  0  0  0  0  0  0  0  0  0
  141.1690   68.6280  228.3080 C   0  0  0  0  0  0  0  0  0  0  0  0
  141.5460   69.9190  228.7190 C   0  0  0  0  0  0  0  0  0  0  0  0
  140.9780   71.0590  228.1080 C   0  0  0  0  0  0  0  0  0  0  0  0
  140.0280   70.9180  227.0800 C   0  0  0  0  0  0  0  0  0  0  0  0
  139.6690   69.6250  226.6980 C   0  0  0  0  0  0  0  0  0  0  0  0
  135.2913   70.8536  222.5647 H   0  0  0  0  0  0  0  0  0  0  0  0
  133.6592   70.4550  223.2474 H   0  0  0  0  0  0  0  0  0  0  0  0
  136.1394   72.9800  222.9503 H   0  0  0  0  0  0  0  0  0  0  0  0
  136.0907   75.1392  224.2002 H   0  0  0  0  0  0  0  0  0  0  0  0
  134.6218   75.3938  226.2026 H   0  0  0  0  0  0  0  0  0  0  0  0
  133.2067   73.4836  226.9665 H   0  0  0  0  0  0  0  0  0  0  0  0
  133.2524   71.3191  225.7261 H   0  0  0  0  0  0  0  0  0  0  0  0
  137.5353   68.4273  222.0174 H   0  0  0  0  0  0  0  0  0  0  0  0
  136.4461   69.8206  222.0628 H   0  0  0  0  0  0  0  0  0  0  0  0
  138.8338   70.4572  220.3549 H   0  0  0  0  0  0  0  0  0  0  0  0
  140.7865   72.0119  220.6750 H   0  0  0  0  0  0  0  0  0  0  0  0
  141.4895   72.6767  222.9854 H   0  0  0  0  0  0  0  0  0  0  0  0
  140.2480   71.7830  224.9827 H   0  0  0  0  0  0  0  0  0  0  0  0
  137.4471   70.7448  225.3372 H   0  0  0  0  0  0  0  0  0  0  0  0
  138.3151   67.0908  225.1283 H   0  0  0  0  0  0  0  0  0  0  0  0
  140.0090   66.4070  226.9860 H   0  0  0  0  0  0  0  0  0  0  0  0
  141.6065   67.7336  228.7756 H   0  0  0  0  0  0  0  0  0  0  0  0
  142.2881   70.0419  229.5216 H   0  0  0  0  0  0  0  0  0  0  0  0
  141.2805   72.0637  228.4382 H   0  0  0  0  0  0  0  0  0  0  0  0
  139.5828   71.7983  226.5933 H   0  0  0  0  0  0  0  0  0  0  0  0
  1  2  2  0
  2  3  2  0
  2  4  1  0
  4  5  1  0
  5  6  2  0
  6  7  1  0
  7  8  2  0
  8  9  1  0
  9 10  2  0
  2 11  1  0
 11 12  1  0
 12 13  1  0
 13 14  2  0
 14 15  1  0
 15 16  2  0
 16 17  1  0
 17 18  2  0
 18 19  1  0
 19 20  1  0
 20 21  2  0
 21 22  1  0
 22 23  1  0
 23 24  2  0
 24 25  1  0
 25 26  2  0
 26 27  1  0
 27 28  2  0
 10  5  1  0
 19 11  1  0
 28 20  1  0
 18 13  1  0
 28 23  1  0
  4 29  1  0
  4 30  1  0
  6 31  1  0
  7 32  1  0
  8 33  1  0
  9 34  1  0
 10 35  1  0
 12 36  1  0
 12 37  1  0
 14 38  1  0
 15 39  1  0
 16 40  1  0
 17 41  1  0
 19 42  1  1
 21 43  1  0
 22 44  1  0
 24 45  1  0
 25 46  1  0
 26 47  1  0
 27 48  1  0
M  END
>  <meeko>  (12) 
{"free_energy": -8.29, "intermolecular_energy": -9.49, "internal_energy": -1.81, "cluster_size": 4, "cluster_id": 1, "rank_in_cluster": 1}

$$$$

     RDKit          3D

 48 52  0  0  0  0  0  0  0  0999 V2000
  134.6270   68.1430  224.0330 O   0  0  0  0  0  0  0  0  0  0  0  0
  135.4250   69.3760  224.3550 S   0  0  0  0  0  0  0  0  0  0  0  0
  135.2910   69.6670  225.8240 O   0  0  0  0  0  0  0  0  0  0  0  0
  134.7420   70.7240  223.3970 C   0  0  0  0  0  0  0  0  0  0  0  0
  134.6870   72.0000  224.1900 C   0  0  0  0  0  0  0  0  0  0  0  0
  133.8390   72.1040  225.3060 C   0  0  0  0  0  0  0  0  0  0  0  0
  133.8090   73.2800  226.0610 C   0  0  0  0  0  0  0  0  0  0  0  0
  134.6240   74.3600  225.7080 C   0  0  0  0  0  0  0  0  0  0  0  0
  135.4670   74.2670  224.5980 C   0  0  0  0  0  0  0  0  0  0  0  0
  135.5000   73.0930  223.8390 C   0  0  0  0  0  0  0  0  0  0  0  0
  137.1030   69.0990  223.9400 N   0  0  0  0  0  0  0  0  0  0  0  0
  137.3680   69.3210  222.4990 C   0  0  0  0  0  0  0  0  0  0  0  0
  138.5380   70.2180  222.4410 C   0  0  0  0  0  0  0  0  0  0  0  0
  139.2150   70.6770  221.3100 C   0  0  0  0  0  0  0  0  0  0  0  0
  140.2960   71.5570  221.4880 C   0  0  0  0  0  0  0  0  0  0  0  0
  140.6700   71.9640  222.7820 C   0  0  0  0  0  0  0  0  0  0  0  0
  139.9660   71.4910  223.9010 C   0  0  0  0  0  0  0  0  0  0  0  0
  138.9050   70.6030  223.6960 C   0  0  0  0  0  0  0  0  0  0  0  0
  138.0000   70.0010  224.7020 C   0  0  2  0  0  0  0  0  0  0  0  0
  138.7830   69.2100  225.7130 C   0  0  0  0  0  0  0  0  0  0  0  0
  138.8730   67.8210  225.7980 C   0  0  0  0  0  0  0  0  0  0  0  0
  139.7290   67.4620  226.7800 N   0  0  0  0  0  0  0  0  0  0  0  0
  140.1930   68.6080  227.3070 C   0  0  0  0  0  0  0  0  0  0  0  0
  141.1220   68.7490  228.3380 C   0  0  0  0  0  0  0  0  0  0  0  0
  141.4880   70.0520  228.7200 C   0  0  0  0  0  0  0  0  0  0  0  0
  140.9270   71.1730  228.0700 C   0  0  0  0  0  0  0  0  0  0  0  0
  139.9930   71.0010  227.0310 C   0  0  0  0  0  0  0  0  0  0  0  0
  139.6440   69.6970  226.6780 C   0  0  0  0  0  0  0  0  0  0  0  0
  135.3705   70.8837  222.5084 H   0  0  0  0  0  0  0  0  0  0  0  0
  133.7146   70.4543  223.1110 H   0  0  0  0  0  0  0  0  0  0  0  0
  133.1963   71.2565  225.5864 H   0  0  0  0  0  0  0  0  0  0  0  0
  133.1436   73.3559  226.9337 H   0  0  0  0  0  0  0  0  0  0  0  0
  134.6013   75.2837  226.3049 H   0  0  0  0  0  0  0  0  0  0  0  0
  136.1058   75.1185  224.3206 H   0  0  0  0  0  0  0  0  0  0  0  0
  136.1639   73.0240  222.9646 H   0  0  0  0  0  0  0  0  0  0  0  0
  137.5911   68.3671  221.9988 H   0  0  0  0  0  0  0  0  0  0  0  0
  136.4966   69.7573  221.9888 H   0  0  0  0  0  0  0  0  0  0  0  0
  138.9095   70.3573  220.3028 H   0  0  0  0  0  0  0  0  0  0  0  0
  140.8510   71.9285  220.6139 H   0  0  0  0  0  0  0  0  0  0  0  0
  141.5157   72.6542  222.9172 H   0  0  0  0  0  0  0  0  0  0  0  0
  140.2427   71.8116  224.9162 H   0  0  0  0  0  0  0  0  0  0  0  0
  137.4419   70.7719  225.2536 H   0  0  0  0  0  0  0  0  0  0  0  0
  138.3242   67.1165  225.1558 H   0  0  0  0  0  0  0  0  0  0  0  0
  139.9890   66.4890  227.0580 H   0  0  0  0  0  0  0  0  0  0  0  0
  141.5545   67.8689  228.8364 H   0  0  0  0  0  0  0  0  0  0  0  0
  142.2165   70.1990  229.5310 H   0  0  0  0  0  0  0  0  0  0  0  0
  141.2217   72.1872  228.3775 H   0  0  0  0  0  0  0  0  0  0  0  0
  139.5526   71.8664  226.5142 H   0  0  0  0  0  0  0  0  0  0  0  0
  1  2  2  0
  2  3  2  0
  2  4  1  0
  4  5  1  0
  5  6  2  0
  6  7  1  0
  7  8  2  0
  8  9  1  0
  9 10  2  0
  2 11  1  0
 11 12  1  0
 12 13  1  0
 13 14  2  0
 14 15  1  0
 15 16  2  0
 16 17  1  0
 17 18  2  0
 18 19  1  0
 19 20  1  0
 20 21  2  0
 21 22  1  0
 22 23  1  0
 23 24  2  0
 24 25  1  0
 25 26  2  0
 26 27  1  0
 27 28  2  0
 10  5  1  0
 19 11  1  0
 28 20  1  0
 18 13  1  0
 28 23  1  0
  4 29  1  0
  4 30  1  0
  6 31  1  0
  7 32  1  0
  8 33  1  0
  9 34  1  0
 10 35  1  0
 12 36  1  0
 12 37  1  0
 14 38  1  0
 15 39  1  0
 16 40  1  0
 17 41  1  0
 19 42  1  1
 21 43  1  0
 22 44  1  0
 24 45  1  0
 25 46  1  0
 26 47  1  0
 27 48  1  0
M  END
>  <meeko>  (13) 
{"free_energy": -8.27, "intermolecular_energy": -9.46, "internal_energy": -1.8, "cluster_size": 4, "cluster_id": 1, "rank_in_cluster": 2}

$$$$

     RDKit          3D

 48 52  0  0  0  0  0  0  0  0999 V2000
  137.8830   77.0170  220.1360 O   0  0  0  0  0  0  0  0  0  0  0  0
  138.3040   76.5380  221.4980 S   0  0  0  0  0  0  0  0  0  0  0  0
  137.9190   75.0920  221.6410 O   0  0  0  0  0  0  0  0  0  0  0  0
  137.4340   77.5280  222.7090 C   0  0  0  0  0  0  0  0  0  0  0  0
  137.8840   78.9630  222.6820 C   0  0  0  0  0  0  0  0  0  0  0  0
  138.4730   79.5410  223.8200 C   0  0  0  0  0  0  0  0  0  0  0  0
  138.9180   80.8660  223.7860 C   0  0  0  0  0  0  0  0  0  0  0  0
  138.7780   81.6220  222.6190 C   0  0  0  0  0  0  0  0  0  0  0  0
  138.1900   81.0570  221.4850 C   0  0  0  0  0  0  0  0  0  0  0  0
  137.7430   79.7320  221.5140 C   0  0  0  0  0  0  0  0  0  0  0  0
  140.0370   76.7270  221.6630 N   0  0  0  0  0  0  0  0  0  0  0  0
  140.7180   75.4370  221.9240 C   0  0  0  0  0  0  0  0  0  0  0  0
  141.8220   75.3640  220.9480 C   0  0  0  0  0  0  0  0  0  0  0  0
  142.7950   74.3700  220.8220 C   0  0  0  0  0  0  0  0  0  0  0  0
  143.7430   74.4880  219.7920 C   0  0  0  0  0  0  0  0  0  0  0  0
  143.6940   75.5810  218.9080 C   0  0  0  0  0  0  0  0  0  0  0  0
  142.7000   76.5630  219.0550 C   0  0  0  0  0  0  0  0  0  0  0  0
  141.7800   76.4290  220.0990 C   0  0  0  0  0  0  0  0  0  0  0  0
  140.6320   77.3040  220.4330 C   0  0  2  0  0  0  0  0  0  0  0  0
  141.0970   78.7090  220.7000 C   0  0  0  0  0  0  0  0  0  0  0  0
  141.0770   79.7790  219.8060 C   0  0  0  0  0  0  0  0  0  0  0  0
  141.4960   80.9110  220.4140 N   0  0  0  0  0  0  0  0  0  0  0  0
  141.7680   80.5720  221.6860 C   0  0  0  0  0  0  0  0  0  0  0  0
  142.2110   81.4110  222.7080 C   0  0  0  0  0  0  0  0  0  0  0  0
  142.4110   80.8480  223.9810 C   0  0  0  0  0  0  0  0  0  0  0  0
  142.1620   79.4760  224.2050 C   0  0  0  0  0  0  0  0  0  0  0  0
  141.7120   78.6530  223.1560 C   0  0  0  0  0  0  0  0  0  0  0  0
  141.5300   79.2380  221.9020 C   0  0  0  0  0  0  0  0  0  0  0  0
  136.3560   77.4884  222.4937 H   0  0  0  0  0  0  0  0  0  0  0  0
  137.6522   77.1191  223.7066 H   0  0  0  0  0  0  0  0  0  0  0  0
  138.5842   78.9489  224.7403 H   0  0  0  0  0  0  0  0  0  0  0  0
  139.3788   81.3139  224.6788 H   0  0  0  0  0  0  0  0  0  0  0  0
  139.1313   82.6634  222.5935 H   0  0  0  0  0  0  0  0  0  0  0  0
  138.0784   81.6546  220.5683 H   0  0  0  0  0  0  0  0  0  0  0  0
  137.2795   79.2902  220.6196 H   0  0  0  0  0  0  0  0  0  0  0  0
  141.1116   75.4119  222.9509 H   0  0  0  0  0  0  0  0  0  0  0  0
  140.0287   74.5859  221.8218 H   0  0  0  0  0  0  0  0  0  0  0  0
  142.8185   73.5146  221.5132 H   0  0  0  0  0  0  0  0  0  0  0  0
  144.5256   73.7237  219.6765 H   0  0  0  0  0  0  0  0  0  0  0  0
  144.4354   75.6671  218.1000 H   0  0  0  0  0  0  0  0  0  0  0  0
  142.6469   77.4176  218.3645 H   0  0  0  0  0  0  0  0  0  0  0  0
  139.9088   77.3520  219.6055 H   0  0  0  0  0  0  0  0  0  0  0  0
  140.7641   79.7112  218.7536 H   0  0  0  0  0  0  0  0  0  0  0  0
  141.5750   81.8600  219.9840 H   0  0  0  0  0  0  0  0  0  0  0  0
  142.3981   82.4793  222.5242 H   0  0  0  0  0  0  0  0  0  0  0  0
  142.7640   81.4810  224.8085 H   0  0  0  0  0  0  0  0  0  0  0  0
  142.3208   79.0480  225.2058 H   0  0  0  0  0  0  0  0  0  0  0  0
  141.5104   77.5840  223.3190 H   0  0  0  0  0  0  0  0  0  0  0  0
  1  2  2  0
  2  3  2  0
  2  4  1  0
  4  5  1  0
  5  6  2  0
  6  7  1  0
  7  8  2  0
  8  9  1  0
  9 10  2  0
  2 11  1  0
 11 12  1  0
 12 13  1  0
 13 14  2  0
 14 15  1  0
 15 16  2  0
 16 17  1  0
 17 18  2  0
 18 19  1  0
 19 20  1  0
 20 21  2  0
 21 22  1  0
 22 23  1  0
 23 24  2  0
 24 25  1  0
 25 26  2  0
 26 27  1  0
 27 28  2  0
 10  5  1  0
 19 11  1  0
 28 20  1  0
 18 13  1  0
 28 23  1  0
  4 29  1  0
  4 30  1  0
  6 31  1  0
  7 32  1  0
  8 33  1  0
  9 34  1  0
 10 35  1  0
 12 36  1  0
 12 37  1  0
 14 38  1  0
 15 39  1  0
 16 40  1  0
 17 41  1  0
 19 42  1  6
 21 43  1  0
 22 44  1  0
 24 45  1  0
 25 46  1  0
 26 47  1  0
 27 48  1  0
M  END
>  <meeko>  (14) 
{"free_energy": -6.6, "intermolecular_energy": -7.79, "internal_energy": -2.82, "cluster_size": 1, "cluster_id": 4, "rank_in_cluster": 1}

$$$$

     RDKit          3D

 48 52  0  0  0  0  0  0  0  0999 V2000
  142.4260   79.8690  224.5140 O   0  0  0  0  0  0  0  0  0  0  0  0
  142.6040   80.0470  223.0310 S   0  0  0  0  0  0  0  0  0  0  0  0
  144.0710   80.1990  222.7370 O   0  0  0  0  0  0  0  0  0  0  0  0
  141.7250   81.5310  222.5580 C   0  0  0  0  0  0  0  0  0  0  0  0
  140.2390   81.3780  222.7320 C   0  0  0  0  0  0  0  0  0  0  0  0
  139.3570   81.8890  221.7650 C   0  0  0  0  0  0  0  0  0  0  0  0
  137.9770   81.7210  221.9130 C   0  0  0  0  0  0  0  0  0  0  0  0
  137.4680   81.0450  223.0250 C   0  0  0  0  0  0  0  0  0  0  0  0
  138.3380   80.5370  223.9930 C   0  0  0  0  0  0  0  0  0  0  0  0
  139.7200   80.7030  223.8500 C   0  0  0  0  0  0  0  0  0  0  0  0
  141.9600   78.6450  222.2040 N   0  0  0  0  0  0  0  0  0  0  0  0
  141.1190   77.8080  223.0910 C   0  0  0  0  0  0  0  0  0  0  0  0
  139.8610   77.5820  222.3530 C   0  0  0  0  0  0  0  0  0  0  0  0
  138.7670   76.8040  222.7360 C   0  0  0  0  0  0  0  0  0  0  0  0
  137.6510   76.7530  221.8840 C   0  0  0  0  0  0  0  0  0  0  0  0
  137.6460   77.4820  220.6810 C   0  0  0  0  0  0  0  0  0  0  0  0
  138.7590   78.2610  220.3240 C   0  0  0  0  0  0  0  0  0  0  0  0
  139.8630   78.2800  221.1830 C   0  0  0  0  0  0  0  0  0  0  0  0
  141.1250   79.0440  221.0450 C   0  0  2  0  0  0  0  0  0  0  0  0
  141.8240   78.6850  219.7620 C   0  0  0  0  0  0  0  0  0  0  0  0
  142.2130   79.5610  218.7510 C   0  0  0  0  0  0  0  0  0  0  0  0
  142.8870   78.8980  217.7840 N   0  0  0  0  0  0  0  0  0  0  0  0
  142.9400   77.6160  218.1810 C   0  0  0  0  0  0  0  0  0  0  0  0
  143.5560   76.5520  217.5210 C   0  0  0  0  0  0  0  0  0  0  0  0
  143.5130   75.2860  218.1310 C   0  0  0  0  0  0  0  0  0  0  0  0
  142.8670   75.1120  219.3750 C   0  0  0  0  0  0  0  0  0  0  0  0
  142.2560   76.2030  220.0190 C   0  0  0  0  0  0  0  0  0  0  0  0
  142.3090   77.4460  219.3870 C   0  0  0  0  0  0  0  0  0  0  0  0
  142.0729   82.3659  223.1840 H   0  0  0  0  0  0  0  0  0  0  0  0
  141.9271   81.7243  221.4941 H   0  0  0  0  0  0  0  0  0  0  0  0
  139.7535   82.4229  220.8888 H   0  0  0  0  0  0  0  0  0  0  0  0
  137.2906   82.1217  221.1526 H   0  0  0  0  0  0  0  0  0  0  0  0
  136.3819   80.9127  223.1383 H   0  0  0  0  0  0  0  0  0  0  0  0
  137.9361   80.0060  224.8685 H   0  0  0  0  0  0  0  0  0  0  0  0
  140.4023   80.3039  224.6150 H   0  0  0  0  0  0  0  0  0  0  0  0
  141.6179   76.8503  223.3007 H   0  0  0  0  0  0  0  0  0  0  0  0
  140.9389   78.2973  224.0596 H   0  0  0  0  0  0  0  0  0  0  0  0
  138.7784   76.2440  223.6827 H   0  0  0  0  0  0  0  0  0  0  0  0
  136.7789   76.1414  222.1584 H   0  0  0  0  0  0  0  0  0  0  0  0
  136.7688   77.4420  220.0185 H   0  0  0  0  0  0  0  0  0  0  0  0
  138.7624   78.8428  219.3904 H   0  0  0  0  0  0  0  0  0  0  0  0
  140.9387   80.1279  221.0219 H   0  0  0  0  0  0  0  0  0  0  0  0
  142.0016   80.6404  218.7407 H   0  0  0  0  0  0  0  0  0  0  0  0
  143.2970   79.3070  216.9150 H   0  0  0  0  0  0  0  0  0  0  0  0
  144.0593   76.6991  216.5540 H   0  0  0  0  0  0  0  0  0  0  0  0
  143.9858   74.4249  217.6360 H   0  0  0  0  0  0  0  0  0  0  0  0
  142.8416   74.1169  219.8431 H   0  0  0  0  0  0  0  0  0  0  0  0
  141.7527   76.0804  220.9894 H   0  0  0  0  0  0  0  0  0  0  0  0
  1  2  2  0
  2  3  2  0
  2  4  1  0
  4  5  1  0
  5  6  2  0
  6  7  1  0
  7  8  2  0
  8  9  1  0
  9 10  2  0
  2 11  1  0
 11 12  1  0
 12 13  1  0
 13 14  2  0
 14 15  1  0
 15 16  2  0
 16 17  1  0
 17 18  2  0
 18 19  1  0
 19 20  1  0
 20 21  2  0
 21 22  1  0
 22 23  1  0
 23 24  2  0
 24 25  1  0
 25 26  2  0
 26 27  1  0
 27 28  2  0
 10  5  1  0
 19 11  1  0
 28 20  1  0
 18 13  1  0
 28 23  1  0
  4 29  1  0
  4 30  1  0
  6 31  1  0
  7 32  1  0
  8 33  1  0
  9 34  1  0
 10 35  1  0
 12 36  1  0
 12 37  1  0
 14 38  1  0
 15 39  1  0
 16 40  1  0
 17 41  1  0
 19 42  1  6
 21 43  1  0
 22 44  1  0
 24 45  1  0
 25 46  1  0
 26 47  1  0
 27 48  1  0
M  END
>  <meeko>  (15) 
{"free_energy": -7.09, "intermolecular_energy": -8.29, "internal_energy": -2.51, "cluster_size": 9, "cluster_id": 3, "rank_in_cluster": 7}

$$$$

     RDKit          3D

 48 52  0  0  0  0  0  0  0  0999 V2000
  134.5460   68.1490  224.2010 O   0  0  0  0  0  0  0  0  0  0  0  0
  135.3840   69.3670  224.4720 S   0  0  0  0  0  0  0  0  0  0  0  0
  135.3050   69.6890  225.9390 O   0  0  0  0  0  0  0  0  0  0  0  0
  134.7050   70.7130  223.5090 C   0  0  0  0  0  0  0  0  0  0  0  0
  134.6830   71.9990  224.2870 C   0  0  0  0  0  0  0  0  0  0  0  0
  135.4940   73.0780  223.8950 C   0  0  0  0  0  0  0  0  0  0  0  0
  135.4530   74.2840  224.6010 C   0  0  0  0  0  0  0  0  0  0  0  0
  134.6030   74.4210  225.7030 C   0  0  0  0  0  0  0  0  0  0  0  0
  133.7970   73.3530  226.1020 C   0  0  0  0  0  0  0  0  0  0  0  0
  133.8350   72.1440  225.4000 C   0  0  0  0  0  0  0  0  0  0  0  0
  137.0400   69.0380  224.0090 N   0  0  0  0  0  0  0  0  0  0  0  0
  137.2590   69.2060  222.5540 C   0  0  0  0  0  0  0  0  0  0  0  0
  138.4450   70.0740  222.4250 C   0  0  0  0  0  0  0  0  0  0  0  0
  139.0920   70.4800  221.2560 C   0  0  0  0  0  0  0  0  0  0  0  0
  140.1960   71.3410  221.3660 C   0  0  0  0  0  0  0  0  0  0  0  0
  140.6230   71.7840  222.6320 C   0  0  0  0  0  0  0  0  0  0  0  0
  139.9500   71.3640  223.7910 C   0  0  0  0  0  0  0  0  0  0  0  0
  138.8640   70.4940  223.6520 C   0  0  0  0  0  0  0  0  0  0  0  0
  137.9820   69.9460  224.7090 C   0  0  2  0  0  0  0  0  0  0  0  0
  138.7840   69.1720  225.7190 C   0  0  0  0  0  0  0  0  0  0  0  0
  138.9010   67.7860  225.8060 C   0  0  0  0  0  0  0  0  0  0  0  0
  139.7670   67.4450  226.7870 N   0  0  0  0  0  0  0  0  0  0  0  0
  140.2090   68.6010  227.3110 C   0  0  0  0  0  0  0  0  0  0  0  0
  141.1380   68.7620  228.3390 C   0  0  0  0  0  0  0  0  0  0  0  0
  141.4790   70.0730  228.7180 C   0  0  0  0  0  0  0  0  0  0  0  0
  140.8940   71.1820  228.0670 C   0  0  0  0  0  0  0  0  0  0  0  0
  139.9610   70.9890  227.0310 C   0  0  0  0  0  0  0  0  0  0  0  0
  139.6370   69.6780  226.6820 C   0  0  0  0  0  0  0  0  0  0  0  0
  135.3204   70.8522  222.6079 H   0  0  0  0  0  0  0  0  0  0  0  0
  133.6690   70.4556  223.2437 H   0  0  0  0  0  0  0  0  0  0  0  0
  136.1639   72.9731  223.0289 H   0  0  0  0  0  0  0  0  0  0  0  0
  136.0895   75.1254  224.2896 H   0  0  0  0  0  0  0  0  0  0  0  0
  134.5694   75.3712  226.2561 H   0  0  0  0  0  0  0  0  0  0  0  0
  133.1307   73.4627  226.9703 H   0  0  0  0  0  0  0  0  0  0  0  0
  133.2001   71.3043  225.7190 H   0  0  0  0  0  0  0  0  0  0  0  0
  137.4440   68.2312  222.0792 H   0  0  0  0  0  0  0  0  0  0  0  0
  136.3798   69.6448  222.0597 H   0  0  0  0  0  0  0  0  0  0  0  0
  138.7448   70.1333  220.2715 H   0  0  0  0  0  0  0  0  0  0  0  0
  140.7280   71.6698  220.4611 H   0  0  0  0  0  0  0  0  0  0  0  0
  141.4861   72.4610  222.7138 H   0  0  0  0  0  0  0  0  0  0  0  0
  140.2696   71.7112  224.7846 H   0  0  0  0  0  0  0  0  0  0  0  0
  137.4595   70.7469  225.2527 H   0  0  0  0  0  0  0  0  0  0  0  0
  138.3642   67.0699  225.1664 H   0  0  0  0  0  0  0  0  0  0  0  0
  140.0470   66.4780  227.0660 H   0  0  0  0  0  0  0  0  0  0  0  0
  141.5895   67.8915  228.8374 H   0  0  0  0  0  0  0  0  0  0  0  0
  142.2063   70.2359  229.5270 H   0  0  0  0  0  0  0  0  0  0  0  0
  141.1693   72.2025  228.3716 H   0  0  0  0  0  0  0  0  0  0  0  0
  139.5022   71.8443  226.5134 H   0  0  0  0  0  0  0  0  0  0  0  0
  1  2  2  0
  2  3  2  0
  2  4  1  0
  4  5  1  0
  5  6  2  0
  6  7  1  0
  7  8  2  0
  8  9  1  0
  9 10  2  0
  2 11  1  0
 11 12  1  0
 12 13  1  0
 13 14  2  0
 14 15  1  0
 15 16  2  0
 16 17  1  0
 17 18  2  0
 18 19  1  0
 19 20  1  0
 20 21  2  0
 21 22  1  0
 22 23  1  0
 23 24  2  0
 24 25  1  0
 25 26  2  0
 26 27  1  0
 27 28  2  0
 10  5  1  0
 19 11  1  0
 28 20  1  0
 18 13  1  0
 28 23  1  0
  4 29  1  0
  4 30  1  0
  6 31  1  0
  7 32  1  0
  8 33  1  0
  9 34  1  0
 10 35  1  0
 12 36  1  0
 12 37  1  0
 14 38  1  0
 15 39  1  0
 16 40  1  0
 17 41  1  0
 19 42  1  1
 21 43  1  0
 22 44  1  0
 24 45  1  0
 25 46  1  0
 26 47  1  0
 27 48  1  0
M  END
>  <meeko>  (16) 
{"free_energy": -8.26, "intermolecular_energy": -9.45, "internal_energy": -1.81, "cluster_size": 4, "cluster_id": 1, "rank_in_cluster": 3}

$$$$

     RDKit          3D

 48 52  0  0  0  0  0  0  0  0999 V2000
  142.4180   79.8690  224.5120 O   0  0  0  0  0  0  0  0  0  0  0  0
  142.5940   80.0500  223.0300 S   0  0  0  0  0  0  0  0  0  0  0  0
  144.0600   80.2030  222.7340 O   0  0  0  0  0  0  0  0  0  0  0  0
  141.7130   81.5340  222.5600 C   0  0  0  0  0  0  0  0  0  0  0  0
  140.2280   81.3820  222.7430 C   0  0  0  0  0  0  0  0  0  0  0  0
  139.3400   81.9090  221.7890 C   0  0  0  0  0  0  0  0  0  0  0  0
  137.9610   81.7420  221.9450 C   0  0  0  0  0  0  0  0  0  0  0  0
  137.4590   81.0510  223.0510 C   0  0  0  0  0  0  0  0  0  0  0  0
  138.3350   80.5280  224.0060 C   0  0  0  0  0  0  0  0  0  0  0  0
  139.7150   80.6930  223.8550 C   0  0  0  0  0  0  0  0  0  0  0  0
  141.9490   78.6490  222.2010 N   0  0  0  0  0  0  0  0  0  0  0  0
  141.1060   77.8130  223.0860 C   0  0  0  0  0  0  0  0  0  0  0  0
  139.8490   77.5890  222.3460 C   0  0  0  0  0  0  0  0  0  0  0  0
  138.7530   76.8120  222.7270 C   0  0  0  0  0  0  0  0  0  0  0  0
  137.6390   76.7630  221.8730 C   0  0  0  0  0  0  0  0  0  0  0  0
  137.6370   77.4920  220.6690 C   0  0  0  0  0  0  0  0  0  0  0  0
  138.7520   78.2700  220.3150 C   0  0  0  0  0  0  0  0  0  0  0  0
  139.8540   78.2870  221.1750 C   0  0  0  0  0  0  0  0  0  0  0  0
  141.1170   79.0490  221.0400 C   0  0  2  0  0  0  0  0  0  0  0  0
  141.8180   78.6890  219.7590 C   0  0  0  0  0  0  0  0  0  0  0  0
  142.2040   79.5640  218.7450 C   0  0  0  0  0  0  0  0  0  0  0  0
  142.8810   78.9020  217.7800 N   0  0  0  0  0  0  0  0  0  0  0  0
  142.9400   77.6200  218.1810 C   0  0  0  0  0  0  0  0  0  0  0  0
  143.5600   76.5580  217.5250 C   0  0  0  0  0  0  0  0  0  0  0  0
  143.5230   75.2930  218.1390 C   0  0  0  0  0  0  0  0  0  0  0  0
  142.8770   75.1200  219.3830 C   0  0  0  0  0  0  0  0  0  0  0  0
  142.2610   76.2110  220.0240 C   0  0  0  0  0  0  0  0  0  0  0  0
  142.3090   77.4520  219.3870 C   0  0  0  0  0  0  0  0  0  0  0  0
  142.0650   82.3696  223.1827 H   0  0  0  0  0  0  0  0  0  0  0  0
  141.9089   81.7257  221.4947 H   0  0  0  0  0  0  0  0  0  0  0  0
  139.7314   82.4542  220.9175 H   0  0  0  0  0  0  0  0  0  0  0  0
  137.2697   82.1553  221.1958 H   0  0  0  0  0  0  0  0  0  0  0  0
  136.3735   80.9186  223.1700 H   0  0  0  0  0  0  0  0  0  0  0  0
  137.9384   79.9861  224.8772 H   0  0  0  0  0  0  0  0  0  0  0  0
  140.4018   80.2819  224.6095 H   0  0  0  0  0  0  0  0  0  0  0  0
  141.6033   76.8546  223.2960 H   0  0  0  0  0  0  0  0  0  0  0  0
  140.9251   78.3020  224.0546 H   0  0  0  0  0  0  0  0  0  0  0  0
  138.7619   76.2516  223.6735 H   0  0  0  0  0  0  0  0  0  0  0  0
  136.7653   76.1529  222.1460 H   0  0  0  0  0  0  0  0  0  0  0  0
  136.7614   77.4525  220.0044 H   0  0  0  0  0  0  0  0  0  0  0  0
  138.7577   78.8527  219.3820 H   0  0  0  0  0  0  0  0  0  0  0  0
  140.9323   80.1331  221.0166 H   0  0  0  0  0  0  0  0  0  0  0  0
  141.9880   80.6425  218.7318 H   0  0  0  0  0  0  0  0  0  0  0  0
  143.2900   79.3100  216.9100 H   0  0  0  0  0  0  0  0  0  0  0  0
  144.0625   76.7045  216.5575 H   0  0  0  0  0  0  0  0  0  0  0  0
  144.0004   74.4327  217.6470 H   0  0  0  0  0  0  0  0  0  0  0  0
  142.8552   74.1261  219.8539 H   0  0  0  0  0  0  0  0  0  0  0  0
  141.7583   76.0897  220.9949 H   0  0  0  0  0  0  0  0  0  0  0  0
  1  2  2  0
  2  3  2  0
  2  4  1  0
  4  5  1  0
  5  6  2  0
  6  7  1  0
  7  8  2  0
  8  9  1  0
  9 10  2  0
  2 11  1  0
 11 12  1  0
 12 13  1  0
 13 14  2  0
 14 15  1  0
 15 16  2  0
 16 17  1  0
 17 18  2  0
 18 19  1  0
 19 20  1  0
 20 21  2  0
 21 22  1  0
 22 23  1  0
 23 24  2  0
 24 25  1  0
 25 26  2  0
 26 27  1  0
 27 28  2  0
 10  5  1  0
 19 11  1  0
 28 20  1  0
 18 13  1  0
 28 23  1  0
  4 29  1  0
  4 30  1  0
  6 31  1  0
  7 32  1  0
  8 33  1  0
  9 34  1  0
 10 35  1  0
 12 36  1  0
 12 37  1  0
 14 38  1  0
 15 39  1  0
 16 40  1  0
 17 41  1  0
 19 42  1  6
 21 43  1  0
 22 44  1  0
 24 45  1  0
 25 46  1  0
 26 47  1  0
 27 48  1  0
M  END
>  <meeko>  (17) 
{"free_energy": -7.1, "intermolecular_energy": -8.29, "internal_energy": -2.51, "cluster_size": 9, "cluster_id": 3, "rank_in_cluster": 4}

$$$$

     RDKit          3D

 48 52  0  0  0  0  0  0  0  0999 V2000
  140.9820   74.9160  221.9660 O   0  0  0  0  0  0  0  0  0  0  0  0
  140.4350   75.4780  220.6820 S   0  0  0  0  0  0  0  0  0  0  0  0
  139.0290   74.9770  220.4970 O   0  0  0  0  0  0  0  0  0  0  0  0
  141.4770   74.8920  219.3510 C   0  0  0  0  0  0  0  0  0  0  0  0
  142.7520   74.2840  219.8680 C   0  0  0  0  0  0  0  0  0  0  0  0
  143.9190   75.0610  219.9610 C   0  0  0  0  0  0  0  0  0  0  0  0
  145.0970   74.5040  220.4690 C   0  0  0  0  0  0  0  0  0  0  0  0
  145.1180   73.1700  220.8850 C   0  0  0  0  0  0  0  0  0  0  0  0
  143.9630   72.3890  220.7910 C   0  0  0  0  0  0  0  0  0  0  0  0
  142.7830   72.9420  220.2840 C   0  0  0  0  0  0  0  0  0  0  0  0
  140.4520   77.2270  220.7680 N   0  0  0  0  0  0  0  0  0  0  0  0
  139.7170   77.7370  221.9490 C   0  0  0  0  0  0  0  0  0  0  0  0
  140.6300   78.6900  222.6070 C   0  0  0  0  0  0  0  0  0  0  0  0
  140.3840   79.4830  223.7300 C   0  0  0  0  0  0  0  0  0  0  0  0
  141.4170   80.3050  224.2090 C   0  0  0  0  0  0  0  0  0  0  0  0
  142.6700   80.3110  223.5680 C   0  0  0  0  0  0  0  0  0  0  0  0
  142.8920   79.4980  222.4440 C   0  0  0  0  0  0  0  0  0  0  0  0
  141.8400   78.7020  221.9790 C   0  0  0  0  0  0  0  0  0  0  0  0
  141.8390   77.7460  220.8480 C   0  0  2  0  0  0  0  0  0  0  0  0
  142.1990   78.4420  219.5650 C   0  0  0  0  0  0  0  0  0  0  0  0
  142.8140   77.8730  218.4510 C   0  0  0  0  0  0  0  0  0  0  0  0
  142.9110   78.7780  217.4510 N   0  0  0  0  0  0  0  0  0  0  0  0
  142.3520   79.9080  217.9150 C   0  0  0  0  0  0  0  0  0  0  0  0
  142.1970   81.1150  217.2350 C   0  0  0  0  0  0  0  0  0  0  0  0
  141.5560   82.1710  217.9070 C   0  0  0  0  0  0  0  0  0  0  0  0
  141.0850   81.9990  219.2270 C   0  0  0  0  0  0  0  0  0  0  0  0
  141.2530   80.7690  219.8890 C   0  0  0  0  0  0  0  0  0  0  0  0
  141.8990   79.7410  219.2000 C   0  0  0  0  0  0  0  0  0  0  0  0
  140.9273   74.1321  218.7762 H   0  0  0  0  0  0  0  0  0  0  0  0
  141.7398   75.7521  218.7176 H   0  0  0  0  0  0  0  0  0  0  0  0
  143.9061   76.1109  219.6331 H   0  0  0  0  0  0  0  0  0  0  0  0
  146.0078   75.1165  220.5412 H   0  0  0  0  0  0  0  0  0  0  0  0
  146.0447   72.7343  221.2868 H   0  0  0  0  0  0  0  0  0  0  0  0
  143.9821   71.3383  221.1161 H   0  0  0  0  0  0  0  0  0  0  0  0
  141.8757   72.3244  220.2105 H   0  0  0  0  0  0  0  0  0  0  0  0
  138.7931   78.2452  221.6356 H   0  0  0  0  0  0  0  0  0  0  0  0
  139.4234   76.9222  222.6272 H   0  0  0  0  0  0  0  0  0  0  0  0
  139.4034   79.4642  224.2280 H   0  0  0  0  0  0  0  0  0  0  0  0
  141.2465   80.9454  225.0869 H   0  0  0  0  0  0  0  0  0  0  0  0
  143.4776   80.9539  223.9481 H   0  0  0  0  0  0  0  0  0  0  0  0
  143.8704   79.4876  221.9413 H   0  0  0  0  0  0  0  0  0  0  0  0
  142.5750   76.9428  221.0001 H   0  0  0  0  0  0  0  0  0  0  0  0
  143.1703   76.8339  218.3935 H   0  0  0  0  0  0  0  0  0  0  0  0
  143.3220   78.6210  216.5030 H   0  0  0  0  0  0  0  0  0  0  0  0
  142.5644   81.2375  216.2054 H   0  0  0  0  0  0  0  0  0  0  0  0
  141.4205   83.1381  217.4006 H   0  0  0  0  0  0  0  0  0  0  0  0
  140.5835   82.8322  219.7411 H   0  0  0  0  0  0  0  0  0  0  0  0
  140.8873   80.6221  220.9160 H   0  0  0  0  0  0  0  0  0  0  0  0
  1  2  2  0
  2  3  2  0
  2  4  1  0
  4  5  1  0
  5  6  2  0
  6  7  1  0
  7  8  2  0
  8  9  1  0
  9 10  2  0
  2 11  1  0
 11 12  1  0
 12 13  1  0
 13 14  2  0
 14 15  1  0
 15 16  2  0
 16 17  1  0
 17 18  2  0
 18 19  1  0
 19 20  1  0
 20 21  2  0
 21 22  1  0
 22 23  1  0
 23 24  2  0
 24 25  1  0
 25 26  2  0
 26 27  1  0
 27 28  2  0
 10  5  1  0
 19 11  1  0
 28 20  1  0
 18 13  1  0
 28 23  1  0
  4 29  1  0
  4 30  1  0
  6 31  1  0
  7 32  1  0
  8 33  1  0
  9 34  1  0
 10 35  1  0
 12 36  1  0
 12 37  1  0
 14 38  1  0
 15 39  1  0
 16 40  1  0
 17 41  1  0
 19 42  1  1
 21 43  1  0
 22 44  1  0
 24 45  1  0
 25 46  1  0
 26 47  1  0
 27 48  1  0
M  END
>  <meeko>  (18) 
{"free_energy": -8.1, "intermolecular_energy": -9.29, "internal_energy": -1.82, "cluster_size": 6, "cluster_id": 2, "rank_in_cluster": 5}

$$$$

     RDKit          3D

 48 52  0  0  0  0  0  0  0  0999 V2000
  140.9650   75.0060  221.9780 O   0  0  0  0  0  0  0  0  0  0  0  0
  140.4090   75.5610  220.6960 S   0  0  0  0  0  0  0  0  0  0  0  0
  138.9980   75.0710  220.5300 O   0  0  0  0  0  0  0  0  0  0  0  0
  141.4320   74.9550  219.3590 C   0  0  0  0  0  0  0  0  0  0  0  0
  142.7010   74.3300  219.8680 C   0  0  0  0  0  0  0  0  0  0  0  0
  143.8750   75.0950  219.9750 C   0  0  0  0  0  0  0  0  0  0  0  0
  145.0470   74.5210  220.4760 C   0  0  0  0  0  0  0  0  0  0  0  0
  145.0570   73.1800  220.8710 C   0  0  0  0  0  0  0  0  0  0  0  0
  143.8960   72.4110  220.7650 C   0  0  0  0  0  0  0  0  0  0  0  0
  142.7210   72.9810  220.2640 C   0  0  0  0  0  0  0  0  0  0  0  0
  140.4410   77.3100  220.7670 N   0  0  0  0  0  0  0  0  0  0  0  0
  139.7060   77.8370  221.9410 C   0  0  0  0  0  0  0  0  0  0  0  0
  140.6270   78.7870  222.5940 C   0  0  0  0  0  0  0  0  0  0  0  0
  140.3830   79.5920  223.7090 C   0  0  0  0  0  0  0  0  0  0  0  0
  141.4220   80.4090  224.1850 C   0  0  0  0  0  0  0  0  0  0  0  0
  142.6770   80.3980  223.5490 C   0  0  0  0  0  0  0  0  0  0  0  0
  142.8950   79.5740  222.4320 C   0  0  0  0  0  0  0  0  0  0  0  0
  141.8380   78.7840  221.9700 C   0  0  0  0  0  0  0  0  0  0  0  0
  141.8320   77.8180  220.8470 C   0  0  2  0  0  0  0  0  0  0  0  0
  142.2030   78.5000  219.5600 C   0  0  0  0  0  0  0  0  0  0  0  0
  142.8030   77.9130  218.4470 C   0  0  0  0  0  0  0  0  0  0  0  0
  142.9160   78.8100  217.4420 N   0  0  0  0  0  0  0  0  0  0  0  0
  142.3810   79.9540  217.9020 C   0  0  0  0  0  0  0  0  0  0  0  0
  142.2490   81.1610  217.2160 C   0  0  0  0  0  0  0  0  0  0  0  0
  141.6320   82.2330  217.8840 C   0  0  0  0  0  0  0  0  0  0  0  0
  141.1620   82.0780  219.2070 C   0  0  0  0  0  0  0  0  0  0  0  0
  141.3070   80.8470  219.8750 C   0  0  0  0  0  0  0  0  0  0  0  0
  141.9290   79.8030  219.1890 C   0  0  0  0  0  0  0  0  0  0  0  0
  140.8666   74.2015  218.7910 H   0  0  0  0  0  0  0  0  0  0  0  0
  141.7028   75.8090  218.7208 H   0  0  0  0  0  0  0  0  0  0  0  0
  143.8717   76.1499  219.6632 H   0  0  0  0  0  0  0  0  0  0  0  0
  145.9624   75.1252  220.5595 H   0  0  0  0  0  0  0  0  0  0  0  0
  145.9800   72.7302  221.2656 H   0  0  0  0  0  0  0  0  0  0  0  0
  143.9056   71.3559  221.0758 H   0  0  0  0  0  0  0  0  0  0  0  0
  141.8091   72.3716  220.1795 H   0  0  0  0  0  0  0  0  0  0  0  0
  138.7883   78.3515  221.6199 H   0  0  0  0  0  0  0  0  0  0  0  0
  139.4012   77.0312  222.6249 H   0  0  0  0  0  0  0  0  0  0  0  0
  139.4001   79.5864  224.2029 H   0  0  0  0  0  0  0  0  0  0  0  0
  141.2540   81.0586  225.0567 H   0  0  0  0  0  0  0  0  0  0  0  0
  143.4894   81.0360  223.9271 H   0  0  0  0  0  0  0  0  0  0  0  0
  143.8748   79.5510  221.9325 H   0  0  0  0  0  0  0  0  0  0  0  0
  142.5600   77.0092  221.0082 H   0  0  0  0  0  0  0  0  0  0  0  0
  143.1376   76.8665  218.3940 H   0  0  0  0  0  0  0  0  0  0  0  0
  143.3210   78.6400  216.4940 H   0  0  0  0  0  0  0  0  0  0  0  0
  142.6160   81.2707  216.1849 H   0  0  0  0  0  0  0  0  0  0  0  0
  141.5143   83.1998  217.3726 H   0  0  0  0  0  0  0  0  0  0  0  0
  140.6798   82.9241  219.7185 H   0  0  0  0  0  0  0  0  0  0  0  0
  140.9419   80.7126  220.9039 H   0  0  0  0  0  0  0  0  0  0  0  0
  1  2  2  0
  2  3  2  0
  2  4  1  0
  4  5  1  0
  5  6  2  0
  6  7  1  0
  7  8  2  0
  8  9  1  0
  9 10  2  0
  2 11  1  0
 11 12  1  0
 12 13  1  0
 13 14  2  0
 14 15  1  0
 15 16  2  0
 16 17  1  0
 17 18  2  0
 18 19  1  0
 19 20  1  0
 20 21  2  0
 21 22  1  0
 22 23  1  0
 23 24  2  0
 24 25  1  0
 25 26  2  0
 26 27  1  0
 27 28  2  0
 10  5  1  0
 19 11  1  0
 28 20  1  0
 18 13  1  0
 28 23  1  0
  4 29  1  0
  4 30  1  0
  6 31  1  0
  7 32  1  0
  8 33  1  0
  9 34  1  0
 10 35  1  0
 12 36  1  0
 12 37  1  0
 14 38  1  0
 15 39  1  0
 16 40  1  0
 17 41  1  0
 19 42  1  1
 21 43  1  0
 22 44  1  0
 24 45  1  0
 25 46  1  0
 26 47  1  0
 27 48  1  0
M  END
>  <meeko>  (19) 
{"free_energy": -8.11, "intermolecular_energy": -9.3, "internal_energy": -1.8, "cluster_size": 6, "cluster_id": 2, "rank_in_cluster": 4}

$$$$

     RDKit          3D

 48 52  0  0  0  0  0  0  0  0999 V2000
  142.4120   79.8650  224.5140 O   0  0  0  0  0  0  0  0  0  0  0  0
  142.6000   80.0440  223.0340 S   0  0  0  0  0  0  0  0  0  0  0  0
  144.0690   80.1940  222.7490 O   0  0  0  0  0  0  0  0  0  0  0  0
  141.7270   81.5310  222.5550 C   0  0  0  0  0  0  0  0  0  0  0  0
  140.2420   81.3900  222.7470 C   0  0  0  0  0  0  0  0  0  0  0  0
  139.3520   81.9340  221.8050 C   0  0  0  0  0  0  0  0  0  0  0  0
  137.9730   81.7790  221.9680 C   0  0  0  0  0  0  0  0  0  0  0  0
  137.4720   81.0810  223.0710 C   0  0  0  0  0  0  0  0  0  0  0  0
  138.3490   80.5400  224.0140 C   0  0  0  0  0  0  0  0  0  0  0  0
  139.7300   80.6940  223.8560 C   0  0  0  0  0  0  0  0  0  0  0  0
  141.9590   78.6450  222.2000 N   0  0  0  0  0  0  0  0  0  0  0  0
  141.1160   77.8050  223.0820 C   0  0  0  0  0  0  0  0  0  0  0  0
  139.8610   77.5800  222.3400 C   0  0  0  0  0  0  0  0  0  0  0  0
  138.7650   76.8010  222.7180 C   0  0  0  0  0  0  0  0  0  0  0  0
  137.6520   76.7520  221.8620 C   0  0  0  0  0  0  0  0  0  0  0  0
  137.6510   77.4840  220.6610 C   0  0  0  0  0  0  0  0  0  0  0  0
  138.7650   78.2650  220.3100 C   0  0  0  0  0  0  0  0  0  0  0  0
  139.8650   78.2820  221.1720 C   0  0  0  0  0  0  0  0  0  0  0  0
  141.1270   79.0460  221.0390 C   0  0  2  0  0  0  0  0  0  0  0  0
  141.8300   78.6910  219.7580 C   0  0  0  0  0  0  0  0  0  0  0  0
  142.2300   79.5720  218.7550 C   0  0  0  0  0  0  0  0  0  0  0  0
  142.9050   78.9110  217.7870 N   0  0  0  0  0  0  0  0  0  0  0  0
  142.9480   77.6250  218.1750 C   0  0  0  0  0  0  0  0  0  0  0  0
  143.5590   76.5620  217.5110 C   0  0  0  0  0  0  0  0  0  0  0  0
  143.5050   75.2920  218.1120 C   0  0  0  0  0  0  0  0  0  0  0  0
  142.8510   75.1140  219.3520 C   0  0  0  0  0  0  0  0  0  0  0  0
  142.2440   76.2050  220.0010 C   0  0  0  0  0  0  0  0  0  0  0  0
  142.3090   77.4520  219.3770 C   0  0  0  0  0  0  0  0  0  0  0  0
  142.0878   82.3696  223.1686 H   0  0  0  0  0  0  0  0  0  0  0  0
  141.9192   81.7128  221.4873 H   0  0  0  0  0  0  0  0  0  0  0  0
  139.7426   82.4839  220.9361 H   0  0  0  0  0  0  0  0  0  0  0  0
  137.2808   82.2066  221.2277 H   0  0  0  0  0  0  0  0  0  0  0  0
  136.3861   80.9578  223.1963 H   0  0  0  0  0  0  0  0  0  0  0  0
  137.9530   79.9922  224.8818 H   0  0  0  0  0  0  0  0  0  0  0  0
  140.4179   80.2692  224.6019 H   0  0  0  0  0  0  0  0  0  0  0  0
  141.6150   76.8472  223.2906 H   0  0  0  0  0  0  0  0  0  0  0  0
  140.9325   78.2916  224.0513 H   0  0  0  0  0  0  0  0  0  0  0  0
  138.7731   76.2391  223.6636 H   0  0  0  0  0  0  0  0  0  0  0  0
  136.7790   76.1395  222.1318 H   0  0  0  0  0  0  0  0  0  0  0  0
  136.7763   77.4450  219.9951 H   0  0  0  0  0  0  0  0  0  0  0  0
  138.7712   78.8496  219.3782 H   0  0  0  0  0  0  0  0  0  0  0  0
  140.9400   80.1298  221.0173 H   0  0  0  0  0  0  0  0  0  0  0  0
  142.0256   80.6528  218.7511 H   0  0  0  0  0  0  0  0  0  0  0  0
  143.3220   79.3230  216.9220 H   0  0  0  0  0  0  0  0  0  0  0  0
  144.0674   76.7122  216.5472 H   0  0  0  0  0  0  0  0  0  0  0  0
  143.9749   74.4313  217.6137 H   0  0  0  0  0  0  0  0  0  0  0  0
  142.8162   74.1158  219.8130 H   0  0  0  0  0  0  0  0  0  0  0  0
  141.7351   76.0794  220.9681 H   0  0  0  0  0  0  0  0  0  0  0  0
  1  2  2  0
  2  3  2  0
  2  4  1  0
  4  5  1  0
  5  6  2  0
  6  7  1  0
  7  8  2  0
  8  9  1  0
  9 10  2  0
  2 11  1  0
 11 12  1  0
 12 13  1  0
 13 14  2  0
 14 15  1  0
 15 16  2  0
 16 17  1  0
 17 18  2  0
 18 19  1  0
 19 20  1  0
 20 21  2  0
 21 22  1  0
 22 23  1  0
 23 24  2  0
 24 25  1  0
 25 26  2  0
 26 27  1  0
 27 28  2  0
 10  5  1  0
 19 11  1  0
 28 20  1  0
 18 13  1  0
 28 23  1  0
  4 29  1  0
  4 30  1  0
  6 31  1  0
  7 32  1  0
  8 33  1  0
  9 34  1  0
 10 35  1  0
 12 36  1  0
 12 37  1  0
 14 38  1  0
 15 39  1  0
 16 40  1  0
 17 41  1  0
 19 42  1  6
 21 43  1  0
 22 44  1  0
 24 45  1  0
 25 46  1  0
 26 47  1  0
 27 48  1  0
M  END
>  <meeko>  (20) 
{"free_energy": -7.1, "intermolecular_energy": -8.3, "internal_energy": -2.5, "cluster_size": 9, "cluster_id": 3, "rank_in_cluster": 2}

$$$$
