
     RDKit          3D

 49 53  0  0  0  0  0  0  0  0999 V2000
  143.7090   80.2490  223.0990 O   0  0  0  0  0  0  0  0  0  0  0  0
  142.2570   79.8640  223.0750 S   0  0  0  0  0  0  0  0  0  0  0  0
  142.0400   78.7420  224.0510 O   0  0  0  0  0  0  0  0  0  0  0  0
  141.2550   81.2670  223.5440 C   0  0  0  0  0  0  0  0  0  0  0  0
  139.8080   80.9880  223.2430 C   0  0  0  0  0  0  0  0  0  0  0  0
  139.1280   79.9620  223.9210 C   0  0  0  0  0  0  0  0  0  0  0  0
  137.7590   79.7680  223.7160 C   0  0  0  0  0  0  0  0  0  0  0  0
  137.0600   80.5960  222.8330 C   0  0  0  0  0  0  0  0  0  0  0  0
  137.7290   81.6180  222.1550 C   0  0  0  0  0  0  0  0  0  0  0  0
  139.0970   81.8190  222.3610 C   0  0  0  0  0  0  0  0  0  0  0  0
  141.8130   79.3530  221.4750 N   0  0  0  0  0  0  0  0  0  0  0  0
  141.4880   80.3460  220.4870 C   0  0  0  0  0  0  0  0  0  0  0  0
  141.5570   80.0600  219.1890 C   0  0  0  0  0  0  0  0  0  0  0  0
  141.9870   78.7250  218.7420 C   0  0  0  0  0  0  0  0  0  0  0  0
  142.2400   78.4840  217.3830 C   0  0  0  0  0  0  0  0  0  0  0  0
  142.6840   77.2280  216.9630 C   0  0  0  0  0  0  0  0  0  0  0  0
  142.8740   76.2050  217.8940 C   0  0  0  0  0  0  0  0  0  0  0  0
  142.6190   76.4330  219.2490 C   0  0  0  0  0  0  0  0  0  0  0  0
  142.1780   77.6940  219.6840 C   0  0  0  0  0  0  0  0  0  0  0  0
  141.8550   77.9210  221.1440 C   0  0  2  0  0  0  0  0  0  0  0  0
  140.5340   77.2830  221.4790 C   0  0  0  0  0  0  0  0  0  0  0  0
  140.3200   76.2220  222.3580 C   0  0  0  0  0  0  0  0  0  0  0  0
  139.0000   75.9470  222.4570 N   0  0  0  0  0  0  0  0  0  0  0  0
  138.3760   76.8290  221.6580 C   0  0  0  0  0  0  0  0  0  0  0  0
  137.0030   76.9480  221.4420 C   0  0  0  0  0  0  0  0  0  0  0  0
  136.5590   77.9590  220.5720 C   0  0  0  0  0  0  0  0  0  0  0  0
  137.4850   78.8220  219.9460 C   0  0  0  0  0  0  0  0  0  0  0  0
  138.8640   78.6810  220.1840 C   0  0  0  0  0  0  0  0  0  0  0  0
  139.2770   77.6650  221.0480 C   0  0  0  0  0  0  0  0  0  0  0  0
  141.3734   81.4556  224.6212 H   0  0  0  0  0  0  0  0  0  0  0  0
  141.5793   82.1497  222.9734 H   0  0  0  0  0  0  0  0  0  0  0  0
  139.6755   79.3086  224.6162 H   0  0  0  0  0  0  0  0  0  0  0  0
  137.2316   78.9636  224.2497 H   0  0  0  0  0  0  0  0  0  0  0  0
  135.9827   80.4428  222.6719 H   0  0  0  0  0  0  0  0  0  0  0  0
  137.1781   82.2660  221.4575 H   0  0  0  0  0  0  0  0  0  0  0  0
  139.6182   82.6299  221.8311 H   0  0  0  0  0  0  0  0  0  0  0  0
  141.1793   81.3521  220.8072 H   0  0  0  0  0  0  0  0  0  0  0  0
  141.2911   80.8259  218.4456 H   0  0  0  0  0  0  0  0  0  0  0  0
  142.0882   79.2866  216.6462 H   0  0  0  0  0  0  0  0  0  0  0  0
  142.8843   77.0446  215.8971 H   0  0  0  0  0  0  0  0  0  0  0  0
  143.2251   75.2174  217.5602 H   0  0  0  0  0  0  0  0  0  0  0  0
  142.7642   75.6220  219.9778 H   0  0  0  0  0  0  0  0  0  0  0  0
  142.6549   77.4594  221.7415 H   0  0  0  0  0  0  0  0  0  0  0  0
  141.1144   75.6838  222.8959 H   0  0  0  0  0  0  0  0  0  0  0  0
  138.5580   75.2060  223.0450 H   0  0  0  0  0  0  0  0  0  0  0  0
  136.2902   76.2720  221.9369 H   0  0  0  0  0  0  0  0  0  0  0  0
  135.4830   78.0787  220.3776 H   0  0  0  0  0  0  0  0  0  0  0  0
  137.1254   79.6098  219.2677 H   0  0  0  0  0  0  0  0  0  0  0  0
  139.5939   79.3499  219.7047 H   0  0  0  0  0  0  0  0  0  0  0  0
  1  2  2  0
  2  3  2  0
  2  4  1  0
  4  5  1  0
  5  6  2  0
  6  7  1  0
  7  8  2  0
  8  9  1  0
  9 10  2  0
  2 11  1  0
 11 12  1  0
 12 13  2  0
 13 14  1  0
 14 15  2  0
 15 16  1  0
 16 17  2  0
 17 18  1  0
 18 19  2  0
 19 20  1  0
 20 21  1  0
 21 22  2  0
 22 23  1  0
 23 24  1  0
 24 25  2  0
 25 26  1  0
 26 27  2  0
 27 28  1  0
 28 29  2  0
 10  5  1  0
 20 11  1  0
 29 21  1  0
 19 14  1  0
 29 24  1  0
  4 30  1  0
  4 31  1  0
  6 32  1  0
  7 33  1  0
  8 34  1  0
  9 35  1  0
 10 36  1  0
 12 37  1  0
 13 38  1  0
 15 39  1  0
 16 40  1  0
 17 41  1  0
 18 42  1  0
 20 43  1  1
 22 44  1  0
 23 45  1  0
 25 46  1  0
 26 47  1  0
 27 48  1  0
 28 49  1  0
M  END
>  <meeko>  (1) 
{"free_energy": -6.76, "intermolecular_energy": -7.95, "internal_energy": -2.96, "cluster_size": 6, "cluster_id": 4, "rank_in_cluster": 2}

$$$$

     RDKit          3D

 49 53  0  0  0  0  0  0  0  0999 V2000
  135.5870   69.8810  226.0420 O   0  0  0  0  0  0  0  0  0  0  0  0
  135.4100   69.4730  224.6060 S   0  0  0  0  0  0  0  0  0  0  0  0
  134.7080   68.1440  224.5670 O   0  0  0  0  0  0  0  0  0  0  0  0
  134.4270   70.6940  223.7500 C   0  0  0  0  0  0  0  0  0  0  0  0
  134.5310   72.0210  224.4500 C   0  0  0  0  0  0  0  0  0  0  0  0
  135.4110   73.0070  223.9720 C   0  0  0  0  0  0  0  0  0  0  0  0
  135.4350   74.2750  224.5590 C   0  0  0  0  0  0  0  0  0  0  0  0
  134.5830   74.5680  225.6280 C   0  0  0  0  0  0  0  0  0  0  0  0
  133.7050   73.5920  226.1090 C   0  0  0  0  0  0  0  0  0  0  0  0
  133.6730   72.3250  225.5200 C   0  0  0  0  0  0  0  0  0  0  0  0
  136.9620   69.3470  223.8380 N   0  0  0  0  0  0  0  0  0  0  0  0
  137.1210   68.4580  222.7200 C   0  0  0  0  0  0  0  0  0  0  0  0
  138.1190   68.6270  221.8550 C   0  0  0  0  0  0  0  0  0  0  0  0
  139.0680   69.7400  222.0190 C   0  0  0  0  0  0  0  0  0  0  0  0
  139.9980   70.0280  221.0090 C   0  0  0  0  0  0  0  0  0  0  0  0
  140.8740   71.1070  221.1480 C   0  0  0  0  0  0  0  0  0  0  0  0
  140.8290   71.9030  222.2950 C   0  0  0  0  0  0  0  0  0  0  0  0
  139.9090   71.6210  223.3080 C   0  0  0  0  0  0  0  0  0  0  0  0
  139.0200   70.5410  223.1770 C   0  0  0  0  0  0  0  0  0  0  0  0
  138.0610   70.2090  224.2990 C   0  0  2  0  0  0  0  0  0  0  0  0
  138.8020   69.5330  225.4200 C   0  0  0  0  0  0  0  0  0  0  0  0
  138.8270   68.1670  225.6990 C   0  0  0  0  0  0  0  0  0  0  0  0
  139.6420   67.9130  226.7480 N   0  0  0  0  0  0  0  0  0  0  0  0
  140.1410   69.1010  227.1280 C   0  0  0  0  0  0  0  0  0  0  0  0
  141.0430   69.3450  228.1640 C   0  0  0  0  0  0  0  0  0  0  0  0
  141.4500   70.6730  228.3820 C   0  0  0  0  0  0  0  0  0  0  0  0
  140.9550   71.7160  227.5690 C   0  0  0  0  0  0  0  0  0  0  0  0
  140.0480   71.4410  226.5300 C   0  0  0  0  0  0  0  0  0  0  0  0
  139.6570   70.1140  226.3400 C   0  0  0  0  0  0  0  0  0  0  0  0
  134.7923   70.7972  222.7176 H   0  0  0  0  0  0  0  0  0  0  0  0
  133.3756   70.3708  223.7432 H   0  0  0  0  0  0  0  0  0  0  0  0
  136.0839   72.7797  223.1321 H   0  0  0  0  0  0  0  0  0  0  0  0
  136.1249   75.0432  224.1796 H   0  0  0  0  0  0  0  0  0  0  0  0
  134.6034   75.5659  226.0904 H   0  0  0  0  0  0  0  0  0  0  0  0
  133.0379   73.8219  226.9529 H   0  0  0  0  0  0  0  0  0  0  0  0
  132.9738   71.5634  225.8955 H   0  0  0  0  0  0  0  0  0  0  0  0
  136.4112   67.6298  222.5775 H   0  0  0  0  0  0  0  0  0  0  0  0
  138.2351   67.9300  221.0120 H   0  0  0  0  0  0  0  0  0  0  0  0
  140.0375   69.4024  220.1051 H   0  0  0  0  0  0  0  0  0  0  0  0
  141.6006   71.3303  220.3529 H   0  0  0  0  0  0  0  0  0  0  0  0
  141.5189   72.7532  222.4009 H   0  0  0  0  0  0  0  0  0  0  0  0
  139.8806   72.2472  224.2119 H   0  0  0  0  0  0  0  0  0  0  0  0
  137.6226   71.1522  224.6571 H   0  0  0  0  0  0  0  0  0  0  0  0
  138.2629   67.4031  225.1438 H   0  0  0  0  0  0  0  0  0  0  0  0
  139.8480   66.9780  227.1670 H   0  0  0  0  0  0  0  0  0  0  0  0
  141.4236   68.5246  228.7902 H   0  0  0  0  0  0  0  0  0  0  0  0
  142.1590   70.9011  229.1915 H   0  0  0  0  0  0  0  0  0  0  0  0
  141.2811   72.7509  227.7496 H   0  0  0  0  0  0  0  0  0  0  0  0
  139.6592   72.2451  225.8879 H   0  0  0  0  0  0  0  0  0  0  0  0
  1  2  2  0
  2  3  2  0
  2  4  1  0
  4  5  1  0
  5  6  2  0
  6  7  1  0
  7  8  2  0
  8  9  1  0
  9 10  2  0
  2 11  1  0
 11 12  1  0
 12 13  2  0
 13 14  1  0
 14 15  2  0
 15 16  1  0
 16 17  2  0
 17 18  1  0
 18 19  2  0
 19 20  1  0
 20 21  1  0
 21 22  2  0
 22 23  1  0
 23 24  1  0
 24 25  2  0
 25 26  1  0
 26 27  2  0
 27 28  1  0
 28 29  2  0
 10  5  1  0
 20 11  1  0
 29 21  1  0
 19 14  1  0
 29 24  1  0
  4 30  1  0
  4 31  1  0
  6 32  1  0
  7 33  1  0
  8 34  1  0
  9 35  1  0
 10 36  1  0
 12 37  1  0
 13 38  1  0
 15 39  1  0
 16 40  1  0
 17 41  1  0
 18 42  1  0
 20 43  1  1
 22 44  1  0
 23 45  1  0
 25 46  1  0
 26 47  1  0
 27 48  1  0
 28 49  1  0
M  END
>  <meeko>  (2) 
{"free_energy": -8.37, "intermolecular_energy": -9.57, "internal_energy": -1.9, "cluster_size": 6, "cluster_id": 2, "rank_in_cluster": 2}

$$$$

     RDKit          3D

 49 53  0  0  0  0  0  0  0  0999 V2000
  143.7060   80.2140  223.0920 O   0  0  0  0  0  0  0  0  0  0  0  0
  142.2490   79.8460  223.0680 S   0  0  0  0  0  0  0  0  0  0  0  0
  142.0170   78.7340  224.0540 O   0  0  0  0  0  0  0  0  0  0  0  0
  141.2620   81.2630  223.5230 C   0  0  0  0  0  0  0  0  0  0  0  0
  139.8100   80.9890  223.2430 C   0  0  0  0  0  0  0  0  0  0  0  0
  139.1280   79.9890  223.9570 C   0  0  0  0  0  0  0  0  0  0  0  0
  137.7550   79.8020  223.7710 C   0  0  0  0  0  0  0  0  0  0  0  0
  137.0540   80.6100  222.8710 C   0  0  0  0  0  0  0  0  0  0  0  0
  137.7260   81.6060  222.1570 C   0  0  0  0  0  0  0  0  0  0  0  0
  139.0970   81.8000  222.3440 C   0  0  0  0  0  0  0  0  0  0  0  0
  141.8030   79.3260  221.4720 N   0  0  0  0  0  0  0  0  0  0  0  0
  141.4980   80.3130  220.4730 C   0  0  0  0  0  0  0  0  0  0  0  0
  141.5680   80.0130  219.1780 C   0  0  0  0  0  0  0  0  0  0  0  0
  141.9770   78.6660  218.7460 C   0  0  0  0  0  0  0  0  0  0  0  0
  142.2310   78.4080  217.3910 C   0  0  0  0  0  0  0  0  0  0  0  0
  142.6550   77.1400  216.9850 C   0  0  0  0  0  0  0  0  0  0  0  0
  142.8250   76.1240  217.9280 C   0  0  0  0  0  0  0  0  0  0  0  0
  142.5690   76.3700  219.2790 C   0  0  0  0  0  0  0  0  0  0  0  0
  142.1470   77.6420  219.6990 C   0  0  0  0  0  0  0  0  0  0  0  0
  141.8220   77.8900  221.1550 C   0  0  2  0  0  0  0  0  0  0  0  0
  140.4900   77.2770  221.4920 C   0  0  0  0  0  0  0  0  0  0  0  0
  140.2550   76.2260  222.3780 C   0  0  0  0  0  0  0  0  0  0  0  0
  138.9310   75.9750  222.4750 N   0  0  0  0  0  0  0  0  0  0  0  0
  138.3240   76.8620  221.6690 C   0  0  0  0  0  0  0  0  0  0  0  0
  136.9540   77.0040  221.4500 C   0  0  0  0  0  0  0  0  0  0  0  0
  136.5290   78.0170  220.5720 C   0  0  0  0  0  0  0  0  0  0  0  0
  137.4710   78.8600  219.9430 C   0  0  0  0  0  0  0  0  0  0  0  0
  138.8470   78.6960  220.1840 C   0  0  0  0  0  0  0  0  0  0  0  0
  139.2400   77.6780  221.0560 C   0  0  0  0  0  0  0  0  0  0  0  0
  141.3936   81.4696  224.5954 H   0  0  0  0  0  0  0  0  0  0  0  0
  141.5858   82.1333  222.9332 H   0  0  0  0  0  0  0  0  0  0  0  0
  139.6767   79.3507  224.6652 H   0  0  0  0  0  0  0  0  0  0  0  0
  137.2259   79.0185  224.3333 H   0  0  0  0  0  0  0  0  0  0  0  0
  135.9739   80.4619  222.7248 H   0  0  0  0  0  0  0  0  0  0  0  0
  137.1742   82.2387  221.4462 H   0  0  0  0  0  0  0  0  0  0  0  0
  139.6200   82.5903  221.7855 H   0  0  0  0  0  0  0  0  0  0  0  0
  141.2036   81.3269  220.7817 H   0  0  0  0  0  0  0  0  0  0  0  0
  141.3187   80.7760  218.4259 H   0  0  0  0  0  0  0  0  0  0  0  0
  142.0961   79.2059  216.6460 H   0  0  0  0  0  0  0  0  0  0  0  0
  142.8551   76.9419  215.9217 H   0  0  0  0  0  0  0  0  0  0  0  0
  143.1614   75.1274  217.6060 H   0  0  0  0  0  0  0  0  0  0  0  0
  142.6984   75.5644  220.0167 H   0  0  0  0  0  0  0  0  0  0  0  0
  142.6123   77.4217  221.7601 H   0  0  0  0  0  0  0  0  0  0  0  0
  141.0383   75.6778  222.9220 H   0  0  0  0  0  0  0  0  0  0  0  0
  138.4750   75.2450  223.0670 H   0  0  0  0  0  0  0  0  0  0  0  0
  136.2285   76.3443  221.9484 H   0  0  0  0  0  0  0  0  0  0  0  0
  135.4556   78.1535  220.3740 H   0  0  0  0  0  0  0  0  0  0  0  0
  137.1264   79.6503  219.2599 H   0  0  0  0  0  0  0  0  0  0  0  0
  139.5896   79.3483  219.7014 H   0  0  0  0  0  0  0  0  0  0  0  0
  1  2  2  0
  2  3  2  0
  2  4  1  0
  4  5  1  0
  5  6  2  0
  6  7  1  0
  7  8  2  0
  8  9  1  0
  9 10  2  0
  2 11  1  0
 11 12  1  0
 12 13  2  0
 13 14  1  0
 14 15  2  0
 15 16  1  0
 16 17  2  0
 17 18  1  0
 18 19  2  0
 19 20  1  0
 20 21  1  0
 21 22  2  0
 22 23  1  0
 23 24  1  0
 24 25  2  0
 25 26  1  0
 26 27  2  0
 27 28  1  0
 28 29  2  0
 10  5  1  0
 20 11  1  0
 29 21  1  0
 19 14  1  0
 29 24  1  0
  4 30  1  0
  4 31  1  0
  6 32  1  0
  7 33  1  0
  8 34  1  0
  9 35  1  0
 10 36  1  0
 12 37  1  0
 13 38  1  0
 15 39  1  0
 16 40  1  0
 17 41  1  0
 18 42  1  0
 20 43  1  1
 22 44  1  0
 23 45  1  0
 25 46  1  0
 26 47  1  0
 27 48  1  0
 28 49  1  0
M  END
>  <meeko>  (3) 
{"free_energy": -6.75, "intermolecular_energy": -7.95, "internal_energy": -2.97, "cluster_size": 6, "cluster_id": 4, "rank_in_cluster": 5}

$$$$

     RDKit          3D

 49 53  0  0  0  0  0  0  0  0999 V2000
  135.5870   69.8110  225.9050 O   0  0  0  0  0  0  0  0  0  0  0  0
  135.4600   69.4640  224.4480 S   0  0  0  0  0  0  0  0  0  0  0  0
  134.7490   68.1450  224.3280 O   0  0  0  0  0  0  0  0  0  0  0  0
  134.5210   70.7290  223.6070 C   0  0  0  0  0  0  0  0  0  0  0  0
  134.6040   72.0230  224.3680 C   0  0  0  0  0  0  0  0  0  0  0  0
  135.4440   73.0560  223.9180 C   0  0  0  0  0  0  0  0  0  0  0  0
  135.4460   74.2950  224.5660 C   0  0  0  0  0  0  0  0  0  0  0  0
  134.6130   74.5100  225.6680 C   0  0  0  0  0  0  0  0  0  0  0  0
  133.7750   73.4870  226.1210 C   0  0  0  0  0  0  0  0  0  0  0  0
  133.7650   72.2490  225.4720 C   0  0  0  0  0  0  0  0  0  0  0  0
  137.0390   69.3540  223.7340 N   0  0  0  0  0  0  0  0  0  0  0  0
  137.2450   68.4690  222.6190 C   0  0  0  0  0  0  0  0  0  0  0  0
  138.2700   68.6490  221.7900 C   0  0  0  0  0  0  0  0  0  0  0  0
  139.2030   69.7700  221.9890 C   0  0  0  0  0  0  0  0  0  0  0  0
  140.1650   70.0690  221.0130 C   0  0  0  0  0  0  0  0  0  0  0  0
  141.0260   71.1560  221.1850 C   0  0  0  0  0  0  0  0  0  0  0  0
  140.9340   71.9470  222.3310 C   0  0  0  0  0  0  0  0  0  0  0  0
  139.9830   71.6550  223.3120 C   0  0  0  0  0  0  0  0  0  0  0  0
  139.1080   70.5680  223.1470 C   0  0  0  0  0  0  0  0  0  0  0  0
  138.1140   70.2240  224.2340 C   0  0  2  0  0  0  0  0  0  0  0  0
  138.8220   69.5510  225.3790 C   0  0  0  0  0  0  0  0  0  0  0  0
  138.8130   68.1900  225.6810 C   0  0  0  0  0  0  0  0  0  0  0  0
  139.6040   67.9360  226.7470 N   0  0  0  0  0  0  0  0  0  0  0  0
  140.1230   69.1190  227.1160 C   0  0  0  0  0  0  0  0  0  0  0  0
  141.0130   69.3610  228.1620 C   0  0  0  0  0  0  0  0  0  0  0  0
  141.4460   70.6840  228.3650 C   0  0  0  0  0  0  0  0  0  0  0  0
  140.9880   71.7230  227.5260 C   0  0  0  0  0  0  0  0  0  0  0  0
  140.0910   71.4500  226.4770 C   0  0  0  0  0  0  0  0  0  0  0  0
  139.6740   70.1290  226.3020 C   0  0  0  0  0  0  0  0  0  0  0  0
  134.9294   70.8742  222.5960 H   0  0  0  0  0  0  0  0  0  0  0  0
  133.4688   70.4148  223.5429 H   0  0  0  0  0  0  0  0  0  0  0  0
  136.1024   72.8891  223.0527 H   0  0  0  0  0  0  0  0  0  0  0  0
  136.1035   75.1012  224.2084 H   0  0  0  0  0  0  0  0  0  0  0  0
  134.6170   75.4843  226.1786 H   0  0  0  0  0  0  0  0  0  0  0  0
  133.1221   73.6565  226.9899 H   0  0  0  0  0  0  0  0  0  0  0  0
  133.0982   71.4493  225.8267 H   0  0  0  0  0  0  0  0  0  0  0  0
  136.5481   67.6349  222.4500 H   0  0  0  0  0  0  0  0  0  0  0  0
  138.4213   67.9552  220.9499 H   0  0  0  0  0  0  0  0  0  0  0  0
  140.2418   69.4460  220.1097 H   0  0  0  0  0  0  0  0  0  0  0  0
  141.7774   71.3885  220.4160 H   0  0  0  0  0  0  0  0  0  0  0  0
  141.6123   72.8030  222.4624 H   0  0  0  0  0  0  0  0  0  0  0  0
  139.9191   72.2780  224.2163 H   0  0  0  0  0  0  0  0  0  0  0  0
  137.6553   71.1625  224.5786 H   0  0  0  0  0  0  0  0  0  0  0  0
  138.2419   67.4292  225.1288 H   0  0  0  0  0  0  0  0  0  0  0  0
  139.7830   67.0040  227.1850 H   0  0  0  0  0  0  0  0  0  0  0  0
  141.3653   68.5433  228.8079 H   0  0  0  0  0  0  0  0  0  0  0  0
  142.1460   70.9104  229.1828 H   0  0  0  0  0  0  0  0  0  0  0  0
  141.3349   72.7533  227.6936 H   0  0  0  0  0  0  0  0  0  0  0  0
  139.7298   72.2516  225.8159 H   0  0  0  0  0  0  0  0  0  0  0  0
  1  2  2  0
  2  3  2  0
  2  4  1  0
  4  5  1  0
  5  6  2  0
  6  7  1  0
  7  8  2  0
  8  9  1  0
  9 10  2  0
  2 11  1  0
 11 12  1  0
 12 13  2  0
 13 14  1  0
 14 15  2  0
 15 16  1  0
 16 17  2  0
 17 18  1  0
 18 19  2  0
 19 20  1  0
 20 21  1  0
 21 22  2  0
 22 23  1  0
 23 24  1  0
 24 25  2  0
 25 26  1  0
 26 27  2  0
 27 28  1  0
 28 29  2  0
 10  5  1  0
 20 11  1  0
 29 21  1  0
 19 14  1  0
 29 24  1  0
  4 30  1  0
  4 31  1  0
  6 32  1  0
  7 33  1  0
  8 34  1  0
  9 35  1  0
 10 36  1  0
 12 37  1  0
 13 38  1  0
 15 39  1  0
 16 40  1  0
 17 41  1  0
 18 42  1  0
 20 43  1  1
 22 44  1  0
 23 45  1  0
 25 46  1  0
 26 47  1  0
 27 48  1  0
 28 49  1  0
M  END
>  <meeko>  (4) 
{"free_energy": -8.41, "intermolecular_energy": -9.6, "internal_energy": -1.88, "cluster_size": 6, "cluster_id": 2, "rank_in_cluster": 1}

$$$$

     RDKit          3D

 49 53  0  0  0  0  0  0  0  0999 V2000
  135.5530   69.9460  226.0330 O   0  0  0  0  0  0  0  0  0  0  0  0
  135.3830   69.5120  224.6040 S   0  0  0  0  0  0  0  0  0  0  0  0
  134.6880   68.1790  224.5860 O   0  0  0  0  0  0  0  0  0  0  0  0
  134.3980   70.7120  223.7230 C   0  0  0  0  0  0  0  0  0  0  0  0
  134.7300   72.0990  224.1980 C   0  0  0  0  0  0  0  0  0  0  0  0
  135.5840   72.9210  223.4420 C   0  0  0  0  0  0  0  0  0  0  0  0
  135.8140   74.2440  223.8300 C   0  0  0  0  0  0  0  0  0  0  0  0
  135.1950   74.7560  224.9740 C   0  0  0  0  0  0  0  0  0  0  0  0
  134.3450   73.9450  225.7310 C   0  0  0  0  0  0  0  0  0  0  0  0
  134.1080   72.6230  225.3430 C   0  0  0  0  0  0  0  0  0  0  0  0
  136.9390   69.3800  223.8450 N   0  0  0  0  0  0  0  0  0  0  0  0
  137.0970   68.5010  222.7180 C   0  0  0  0  0  0  0  0  0  0  0  0
  138.1020   68.6710  221.8610 C   0  0  0  0  0  0  0  0  0  0  0  0
  139.0600   69.7730  222.0430 C   0  0  0  0  0  0  0  0  0  0  0  0
  139.9990   70.0640  221.0430 C   0  0  0  0  0  0  0  0  0  0  0  0
  140.8840   71.1340  221.1990 C   0  0  0  0  0  0  0  0  0  0  0  0
  140.8380   71.9170  222.3540 C   0  0  0  0  0  0  0  0  0  0  0  0
  139.9100   71.6330  223.3590 C   0  0  0  0  0  0  0  0  0  0  0  0
  139.0120   70.5630  223.2100 C   0  0  0  0  0  0  0  0  0  0  0  0
  138.0430   70.2270  224.3220 C   0  0  2  0  0  0  0  0  0  0  0  0
  138.7710   69.5320  225.4410 C   0  0  0  0  0  0  0  0  0  0  0  0
  138.7660   68.1650  225.7170 C   0  0  0  0  0  0  0  0  0  0  0  0
  139.5760   67.8910  226.7630 N   0  0  0  0  0  0  0  0  0  0  0  0
  140.1020   69.0660  227.1450 C   0  0  0  0  0  0  0  0  0  0  0  0
  141.0110   69.2880  228.1800 C   0  0  0  0  0  0  0  0  0  0  0  0
  141.4480   70.6060  228.4010 C   0  0  0  0  0  0  0  0  0  0  0  0
  140.9760   71.6620  227.5900 C   0  0  0  0  0  0  0  0  0  0  0  0
  140.0600   71.4090  226.5520 C   0  0  0  0  0  0  0  0  0  0  0  0
  139.6400   70.0920  226.3600 C   0  0  0  0  0  0  0  0  0  0  0  0
  134.6085   70.6358  222.6460 H   0  0  0  0  0  0  0  0  0  0  0  0
  133.3327   70.5118  223.9104 H   0  0  0  0  0  0  0  0  0  0  0  0
  136.0732   72.5214  222.5415 H   0  0  0  0  0  0  0  0  0  0  0  0
  136.4827   74.8829  223.2345 H   0  0  0  0  0  0  0  0  0  0  0  0
  135.3769   75.7973  225.2784 H   0  0  0  0  0  0  0  0  0  0  0  0
  133.8617   74.3475  226.6335 H   0  0  0  0  0  0  0  0  0  0  0  0
  133.4316   71.9907  225.9369 H   0  0  0  0  0  0  0  0  0  0  0  0
  136.3810   67.6805  222.5623 H   0  0  0  0  0  0  0  0  0  0  0  0
  138.2169   67.9826  221.0108 H   0  0  0  0  0  0  0  0  0  0  0  0
  140.0390   69.4478  220.1326 H   0  0  0  0  0  0  0  0  0  0  0  0
  141.6176   71.3596  220.4111 H   0  0  0  0  0  0  0  0  0  0  0  0
  141.5345   72.7600  222.4731 H   0  0  0  0  0  0  0  0  0  0  0  0
  139.8824   72.2492  224.2698 H   0  0  0  0  0  0  0  0  0  0  0  0
  137.6107   71.1702  224.6874 H   0  0  0  0  0  0  0  0  0  0  0  0
  138.1842   67.4151  225.1610 H   0  0  0  0  0  0  0  0  0  0  0  0
  139.7620   66.9510  227.1800 H   0  0  0  0  0  0  0  0  0  0  0  0
  141.3744   68.4579  228.8035 H   0  0  0  0  0  0  0  0  0  0  0  0
  142.1622   70.8163  229.2108 H   0  0  0  0  0  0  0  0  0  0  0  0
  141.3267   72.6888  227.7710 H   0  0  0  0  0  0  0  0  0  0  0  0
  139.6872   72.2228  225.9128 H   0  0  0  0  0  0  0  0  0  0  0  0
  1  2  2  0
  2  3  2  0
  2  4  1  0
  4  5  1  0
  5  6  2  0
  6  7  1  0
  7  8  2  0
  8  9  1  0
  9 10  2  0
  2 11  1  0
 11 12  1  0
 12 13  2  0
 13 14  1  0
 14 15  2  0
 15 16  1  0
 16 17  2  0
 17 18  1  0
 18 19  2  0
 19 20  1  0
 20 21  1  0
 21 22  2  0
 22 23  1  0
 23 24  1  0
 24 25  2  0
 25 26  1  0
 26 27  2  0
 27 28  1  0
 28 29  2  0
 10  5  1  0
 20 11  1  0
 29 21  1  0
 19 14  1  0
 29 24  1  0
  4 30  1  0
  4 31  1  0
  6 32  1  0
  7 33  1  0
  8 34  1  0
  9 35  1  0
 10 36  1  0
 12 37  1  0
 13 38  1  0
 15 39  1  0
 16 40  1  0
 17 41  1  0
 18 42  1  0
 20 43  1  1
 22 44  1  0
 23 45  1  0
 25 46  1  0
 26 47  1  0
 27 48  1  0
 28 49  1  0
M  END
>  <meeko>  (5) 
{"free_energy": -8.24, "intermolecular_energy": -9.43, "internal_energy": -2.02, "cluster_size": 6, "cluster_id": 2, "rank_in_cluster": 4}

$$$$

     RDKit          3D

 49 53  0  0  0  0  0  0  0  0999 V2000
  143.7020   80.2470  223.0980 O   0  0  0  0  0  0  0  0  0  0  0  0
  142.2490   79.8630  223.0710 S   0  0  0  0  0  0  0  0  0  0  0  0
  142.0310   78.7400  224.0470 O   0  0  0  0  0  0  0  0  0  0  0  0
  141.2470   81.2650  223.5390 C   0  0  0  0  0  0  0  0  0  0  0  0
  139.8010   80.9870  223.2370 C   0  0  0  0  0  0  0  0  0  0  0  0
  139.1190   79.9640  223.9190 C   0  0  0  0  0  0  0  0  0  0  0  0
  137.7500   79.7700  223.7130 C   0  0  0  0  0  0  0  0  0  0  0  0
  137.0520   80.5940  222.8250 C   0  0  0  0  0  0  0  0  0  0  0  0
  137.7230   81.6140  222.1430 C   0  0  0  0  0  0  0  0  0  0  0  0
  139.0910   81.8140  222.3510 C   0  0  0  0  0  0  0  0  0  0  0  0
  141.8090   79.3530  221.4710 N   0  0  0  0  0  0  0  0  0  0  0  0
  141.4920   80.3470  220.4810 C   0  0  0  0  0  0  0  0  0  0  0  0
  141.5650   80.0580  219.1830 C   0  0  0  0  0  0  0  0  0  0  0  0
  141.9880   78.7210  218.7390 C   0  0  0  0  0  0  0  0  0  0  0  0
  142.2450   78.4770  217.3820 C   0  0  0  0  0  0  0  0  0  0  0  0
  142.6820   77.2170  216.9640 C   0  0  0  0  0  0  0  0  0  0  0  0
  142.8620   76.1940  217.8970 C   0  0  0  0  0  0  0  0  0  0  0  0
  142.6040   76.4250  219.2510 C   0  0  0  0  0  0  0  0  0  0  0  0
  142.1690   77.6890  219.6830 C   0  0  0  0  0  0  0  0  0  0  0  0
  141.8420   77.9210  221.1410 C   0  0  2  0  0  0  0  0  0  0  0  0
  140.5160   77.2900  221.4730 C   0  0  0  0  0  0  0  0  0  0  0  0
  140.2930   76.2340  222.3550 C   0  0  0  0  0  0  0  0  0  0  0  0
  138.9710   75.9670  222.4480 N   0  0  0  0  0  0  0  0  0  0  0  0
  138.3550   76.8490  221.6430 C   0  0  0  0  0  0  0  0  0  0  0  0
  136.9840   76.9740  221.4200 C   0  0  0  0  0  0  0  0  0  0  0  0
  136.5490   77.9840  220.5440 C   0  0  0  0  0  0  0  0  0  0  0  0
  137.4830   78.8400  219.9190 C   0  0  0  0  0  0  0  0  0  0  0  0
  138.8600   78.6930  220.1640 C   0  0  0  0  0  0  0  0  0  0  0  0
  139.2630   77.6780  221.0340 C   0  0  0  0  0  0  0  0  0  0  0  0
  141.3645   81.4533  224.6164 H   0  0  0  0  0  0  0  0  0  0  0  0
  141.5719   82.1476  222.9685 H   0  0  0  0  0  0  0  0  0  0  0  0
  139.6651   79.3133  224.6179 H   0  0  0  0  0  0  0  0  0  0  0  0
  137.2216   78.9685  224.2499 H   0  0  0  0  0  0  0  0  0  0  0  0
  135.9750   80.4400  222.6628 H   0  0  0  0  0  0  0  0  0  0  0  0
  137.1738   82.2598  221.4420 H   0  0  0  0  0  0  0  0  0  0  0  0
  139.6135   82.6224  221.8186 H   0  0  0  0  0  0  0  0  0  0  0  0
  141.1866   81.3548  220.7988 H   0  0  0  0  0  0  0  0  0  0  0  0
  141.3071   80.8247  218.4376 H   0  0  0  0  0  0  0  0  0  0  0  0
  142.1021   79.2802  216.6441 H   0  0  0  0  0  0  0  0  0  0  0  0
  142.8844   77.0311  215.8989 H   0  0  0  0  0  0  0  0  0  0  0  0
  143.2077   75.2037  217.5655 H   0  0  0  0  0  0  0  0  0  0  0  0
  142.7421   75.6140  219.9812 H   0  0  0  0  0  0  0  0  0  0  0  0
  142.6373   77.4560  221.7421 H   0  0  0  0  0  0  0  0  0  0  0  0
  141.0818   75.6938  222.8989 H   0  0  0  0  0  0  0  0  0  0  0  0
  138.5220   75.2300  223.0370 H   0  0  0  0  0  0  0  0  0  0  0  0
  136.2655   76.3034  221.9140 H   0  0  0  0  0  0  0  0  0  0  0  0
  135.4745   78.1085  220.3440 H   0  0  0  0  0  0  0  0  0  0  0  0
  137.1307   79.6270  219.2360 H   0  0  0  0  0  0  0  0  0  0  0  0
  139.5958   79.3562  219.6857 H   0  0  0  0  0  0  0  0  0  0  0  0
  1  2  2  0
  2  3  2  0
  2  4  1  0
  4  5  1  0
  5  6  2  0
  6  7  1  0
  7  8  2  0
  8  9  1  0
  9 10  2  0
  2 11  1  0
 11 12  1  0
 12 13  2  0
 13 14  1  0
 14 15  2  0
 15 16  1  0
 16 17  2  0
 17 18  1  0
 18 19  2  0
 19 20  1  0
 20 21  1  0
 21 22  2  0
 22 23  1  0
 23 24  1  0
 24 25  2  0
 25 26  1  0
 26 27  2  0
 27 28  1  0
 28 29  2  0
 10  5  1  0
 20 11  1  0
 29 21  1  0
 19 14  1  0
 29 24  1  0
  4 30  1  0
  4 31  1  0
  6 32  1  0
  7 33  1  0
  8 34  1  0
  9 35  1  0
 10 36  1  0
 12 37  1  0
 13 38  1  0
 15 39  1  0
 16 40  1  0
 17 41  1  0
 18 42  1  0
 20 43  1  1
 22 44  1  0
 23 45  1  0
 25 46  1  0
 26 47  1  0
 27 48  1  0
 28 49  1  0
M  END
>  <meeko>  (6) 
{"free_energy": -6.75, "intermolecular_energy": -7.95, "internal_energy": -2.97, "cluster_size": 6, "cluster_id": 4, "rank_in_cluster": 4}

$$$$

     RDKit          3D

 49 53  0  0  0  0  0  0  0  0999 V2000
  143.7540   80.3770  223.0920 O   0  0  0  0  0  0  0  0  0  0  0  0
  142.3220   79.9220  223.0890 S   0  0  0  0  0  0  0  0  0  0  0  0
  142.1910   78.7390  224.0080 O   0  0  0  0  0  0  0  0  0  0  0  0
  141.2680   81.2450  223.6640 C   0  0  0  0  0  0  0  0  0  0  0  0
  139.8340   80.9400  223.3320 C   0  0  0  0  0  0  0  0  0  0  0  0
  139.1330   81.7430  222.4150 C   0  0  0  0  0  0  0  0  0  0  0  0
  137.8330   81.4020  222.0290 C   0  0  0  0  0  0  0  0  0  0  0  0
  137.2240   80.2600  222.5560 C   0  0  0  0  0  0  0  0  0  0  0  0
  137.9140   79.4570  223.4670 C   0  0  0  0  0  0  0  0  0  0  0  0
  139.2160   79.7900  223.8520 C   0  0  0  0  0  0  0  0  0  0  0  0
  141.8530   79.4760  221.4770 N   0  0  0  0  0  0  0  0  0  0  0  0
  141.4520   80.5030  220.5550 C   0  0  0  0  0  0  0  0  0  0  0  0
  141.4940   80.2890  219.2410 C   0  0  0  0  0  0  0  0  0  0  0  0
  141.9710   79.0020  218.7100 C   0  0  0  0  0  0  0  0  0  0  0  0
  142.1930   78.8460  217.3330 C   0  0  0  0  0  0  0  0  0  0  0  0
  142.6810   77.6370  216.8330 C   0  0  0  0  0  0  0  0  0  0  0  0
  142.9470   76.5760  217.7010 C   0  0  0  0  0  0  0  0  0  0  0  0
  142.7240   76.7190  219.0730 C   0  0  0  0  0  0  0  0  0  0  0  0
  142.2380   77.9330  219.5880 C   0  0  0  0  0  0  0  0  0  0  0  0
  141.9510   78.0670  221.0670 C   0  0  2  0  0  0  0  0  0  0  0  0
  140.6720   77.3490  221.4050 C   0  0  0  0  0  0  0  0  0  0  0  0
  140.5070   76.3410  222.3540 C   0  0  0  0  0  0  0  0  0  0  0  0
  139.2100   75.9680  222.4280 N   0  0  0  0  0  0  0  0  0  0  0  0
  138.5510   76.7360  221.5440 C   0  0  0  0  0  0  0  0  0  0  0  0
  137.1830   76.7260  221.2730 C   0  0  0  0  0  0  0  0  0  0  0  0
  136.6950   77.6310  220.3140 C   0  0  0  0  0  0  0  0  0  0  0  0
  137.5750   78.5190  219.6570 C   0  0  0  0  0  0  0  0  0  0  0  0
  138.9500   78.5090  219.9510 C   0  0  0  0  0  0  0  0  0  0  0  0
  139.4060   77.5960  220.9040 C   0  0  0  0  0  0  0  0  0  0  0  0
  141.3756   81.3492  224.7538 H   0  0  0  0  0  0  0  0  0  0  0  0
  141.5621   82.1824  223.1692 H   0  0  0  0  0  0  0  0  0  0  0  0
  139.6093   82.6433  221.9995 H   0  0  0  0  0  0  0  0  0  0  0  0
  137.2895   82.0329  221.3103 H   0  0  0  0  0  0  0  0  0  0  0  0
  136.2007   79.9933  222.2532 H   0  0  0  0  0  0  0  0  0  0  0  0
  137.4316   78.5601  223.8827 H   0  0  0  0  0  0  0  0  0  0  0  0
  139.7582   79.1502  224.5638 H   0  0  0  0  0  0  0  0  0  0  0  0
  141.1072   81.4748  220.9380 H   0  0  0  0  0  0  0  0  0  0  0  0
  141.1700   81.0795  218.5481 H   0  0  0  0  0  0  0  0  0  0  0  0
  141.9820   79.6785  216.6457 H   0  0  0  0  0  0  0  0  0  0  0  0
  142.8562   77.5202  215.7533 H   0  0  0  0  0  0  0  0  0  0  0  0
  143.3329   75.6256  217.3039 H   0  0  0  0  0  0  0  0  0  0  0  0
  142.9295   75.8786  219.7523 H   0  0  0  0  0  0  0  0  0  0  0  0
  142.7902   77.6138  221.6150 H   0  0  0  0  0  0  0  0  0  0  0  0
  141.3188   75.9096  222.9580 H   0  0  0  0  0  0  0  0  0  0  0  0
  138.8040   75.2380  223.0560 H   0  0  0  0  0  0  0  0  0  0  0  0
  136.5068   76.0317  221.7933 H   0  0  0  0  0  0  0  0  0  0  0  0
  135.6216   77.6475  220.0740 H   0  0  0  0  0  0  0  0  0  0  0  0
  137.1818   79.2238  218.9096 H   0  0  0  0  0  0  0  0  0  0  0  0
  139.6437   79.1979  219.4468 H   0  0  0  0  0  0  0  0  0  0  0  0
  1  2  2  0
  2  3  2  0
  2  4  1  0
  4  5  1  0
  5  6  2  0
  6  7  1  0
  7  8  2  0
  8  9  1  0
  9 10  2  0
  2 11  1  0
 11 12  1  0
 12 13  2  0
 13 14  1  0
 14 15  2  0
 15 16  1  0
 16 17  2  0
 17 18  1  0
 18 19  2  0
 19 20  1  0
 20 21  1  0
 21 22  2  0
 22 23  1  0
 23 24  1  0
 24 25  2  0
 25 26  1  0
 26 27  2  0
 27 28  1  0
 28 29  2  0
 10  5  1  0
 20 11  1  0
 29 21  1  0
 19 14  1  0
 29 24  1  0
  4 30  1  0
  4 31  1  0
  6 32  1  0
  7 33  1  0
  8 34  1  0
  9 35  1  0
 10 36  1  0
 12 37  1  0
 13 38  1  0
 15 39  1  0
 16 40  1  0
 17 41  1  0
 18 42  1  0
 20 43  1  1
 22 44  1  0
 23 45  1  0
 25 46  1  0
 26 47  1  0
 27 48  1  0
 28 49  1  0
M  END
>  <meeko>  (7) 
{"free_energy": -6.71, "intermolecular_energy": -7.9, "internal_energy": -3.01, "cluster_size": 6, "cluster_id": 4, "rank_in_cluster": 6}

$$$$

     RDKit          3D

 49 53  0  0  0  0  0  0  0  0999 V2000
  143.7190   80.2100  223.0940 O   0  0  0  0  0  0  0  0  0  0  0  0
  142.2620   79.8410  223.0670 S   0  0  0  0  0  0  0  0  0  0  0  0
  142.0280   78.7290  224.0510 O   0  0  0  0  0  0  0  0  0  0  0  0
  141.2730   81.2580  223.5210 C   0  0  0  0  0  0  0  0  0  0  0  0
  139.8220   80.9840  223.2380 C   0  0  0  0  0  0  0  0  0  0  0  0
  139.1450   79.9670  223.9320 C   0  0  0  0  0  0  0  0  0  0  0  0
  137.7730   79.7780  223.7440 C   0  0  0  0  0  0  0  0  0  0  0  0
  137.0680   80.6010  222.8620 C   0  0  0  0  0  0  0  0  0  0  0  0
  137.7340   81.6150  222.1680 C   0  0  0  0  0  0  0  0  0  0  0  0
  139.1050   81.8110  222.3570 C   0  0  0  0  0  0  0  0  0  0  0  0
  141.8200   79.3230  221.4700 N   0  0  0  0  0  0  0  0  0  0  0  0
  141.5050   80.3110  220.4740 C   0  0  0  0  0  0  0  0  0  0  0  0
  141.5770   80.0160  219.1780 C   0  0  0  0  0  0  0  0  0  0  0  0
  141.9970   78.6750  218.7410 C   0  0  0  0  0  0  0  0  0  0  0  0
  142.2530   78.4230  217.3850 C   0  0  0  0  0  0  0  0  0  0  0  0
  142.6880   77.1610  216.9740 C   0  0  0  0  0  0  0  0  0  0  0  0
  142.8680   76.1430  217.9130 C   0  0  0  0  0  0  0  0  0  0  0  0
  142.6100   76.3820  219.2650 C   0  0  0  0  0  0  0  0  0  0  0  0
  142.1770   77.6490  219.6900 C   0  0  0  0  0  0  0  0  0  0  0  0
  141.8510   77.8890  221.1470 C   0  0  2  0  0  0  0  0  0  0  0  0
  140.5240   77.2620  221.4830 C   0  0  0  0  0  0  0  0  0  0  0  0
  140.3010   76.2020  222.3610 C   0  0  0  0  0  0  0  0  0  0  0  0
  138.9790   75.9400  222.4590 N   0  0  0  0  0  0  0  0  0  0  0  0
  138.3620   76.8300  221.6630 C   0  0  0  0  0  0  0  0  0  0  0  0
  136.9910   76.9620  221.4480 C   0  0  0  0  0  0  0  0  0  0  0  0
  136.5550   77.9790  220.5800 C   0  0  0  0  0  0  0  0  0  0  0  0
  137.4890   78.8340  219.9550 C   0  0  0  0  0  0  0  0  0  0  0  0
  138.8670   78.6790  220.1910 C   0  0  0  0  0  0  0  0  0  0  0  0
  139.2710   77.6580  221.0540 C   0  0  0  0  0  0  0  0  0  0  0  0
  141.4024   81.4640  224.5938 H   0  0  0  0  0  0  0  0  0  0  0  0
  141.5977   82.1286  222.9323 H   0  0  0  0  0  0  0  0  0  0  0  0
  139.6972   79.3167  224.6264 H   0  0  0  0  0  0  0  0  0  0  0  0
  137.2479   78.9809  224.2907 H   0  0  0  0  0  0  0  0  0  0  0  0
  135.9884   80.4508  222.7138 H   0  0  0  0  0  0  0  0  0  0  0  0
  137.1781   82.2601  221.4717 H   0  0  0  0  0  0  0  0  0  0  0  0
  139.6240   82.6149  221.8145 H   0  0  0  0  0  0  0  0  0  0  0  0
  141.2014   81.3211  220.7863 H   0  0  0  0  0  0  0  0  0  0  0  0
  141.3209   80.7796  218.4288 H   0  0  0  0  0  0  0  0  0  0  0  0
  142.1107   79.2222  216.6427 H   0  0  0  0  0  0  0  0  0  0  0  0
  142.8890   76.9687  215.9097 H   0  0  0  0  0  0  0  0  0  0  0  0
  143.2137   75.1508  217.5873 H   0  0  0  0  0  0  0  0  0  0  0  0
  142.7465   75.5748  219.9997 H   0  0  0  0  0  0  0  0  0  0  0  0
  142.6461   77.4257  221.7497 H   0  0  0  0  0  0  0  0  0  0  0  0
  141.0903   75.6558  222.8983 H   0  0  0  0  0  0  0  0  0  0  0  0
  138.5300   75.2020  223.0470 H   0  0  0  0  0  0  0  0  0  0  0  0
  136.2724   76.2914  221.9420 H   0  0  0  0  0  0  0  0  0  0  0  0
  135.4800   78.1092  220.3868 H   0  0  0  0  0  0  0  0  0  0  0  0
  137.1365   79.6268  219.2788 H   0  0  0  0  0  0  0  0  0  0  0  0
  139.6030   79.3409  219.7111 H   0  0  0  0  0  0  0  0  0  0  0  0
  1  2  2  0
  2  3  2  0
  2  4  1  0
  4  5  1  0
  5  6  2  0
  6  7  1  0
  7  8  2  0
  8  9  1  0
  9 10  2  0
  2 11  1  0
 11 12  1  0
 12 13  2  0
 13 14  1  0
 14 15  2  0
 15 16  1  0
 16 17  2  0
 17 18  1  0
 18 19  2  0
 19 20  1  0
 20 21  1  0
 21 22  2  0
 22 23  1  0
 23 24  1  0
 24 25  2  0
 25 26  1  0
 26 27  2  0
 27 28  1  0
 28 29  2  0
 10  5  1  0
 20 11  1  0
 29 21  1  0
 19 14  1  0
 29 24  1  0
  4 30  1  0
  4 31  1  0
  6 32  1  0
  7 33  1  0
  8 34  1  0
  9 35  1  0
 10 36  1  0
 12 37  1  0
 13 38  1  0
 15 39  1  0
 16 40  1  0
 17 41  1  0
 18 42  1  0
 20 43  1  1
 22 44  1  0
 23 45  1  0
 25 46  1  0
 26 47  1  0
 27 48  1  0
 28 49  1  0
M  END
>  <meeko>  (8) 
{"free_energy": -6.76, "intermolecular_energy": -7.96, "internal_energy": -2.96, "cluster_size": 6, "cluster_id": 4, "rank_in_cluster": 1}

$$$$

     RDKit          3D

 49 53  0  0  0  0  0  0  0  0999 V2000
  135.5670   69.9980  226.0330 O   0  0  0  0  0  0  0  0  0  0  0  0
  135.3960   69.5020  224.6240 S   0  0  0  0  0  0  0  0  0  0  0  0
  134.7370   68.1510  224.6670 O   0  0  0  0  0  0  0  0  0  0  0  0
  134.3700   70.6390  223.7050 C   0  0  0  0  0  0  0  0  0  0  0  0
  134.4040   71.9970  224.3480 C   0  0  0  0  0  0  0  0  0  0  0  0
  133.5860   72.2770  225.4560 C   0  0  0  0  0  0  0  0  0  0  0  0
  133.6900   73.5040  226.1170 C   0  0  0  0  0  0  0  0  0  0  0  0
  134.6090   74.4610  225.6770 C   0  0  0  0  0  0  0  0  0  0  0  0
  135.4260   74.1900  224.5760 C   0  0  0  0  0  0  0  0  0  0  0  0
  135.3290   72.9620  223.9150 C   0  0  0  0  0  0  0  0  0  0  0  0
  136.9480   69.3810  223.8550 N   0  0  0  0  0  0  0  0  0  0  0  0
  137.1010   68.5150  222.7170 C   0  0  0  0  0  0  0  0  0  0  0  0
  138.1000   68.6960  221.8570 C   0  0  0  0  0  0  0  0  0  0  0  0
  139.0570   69.7980  222.0450 C   0  0  0  0  0  0  0  0  0  0  0  0
  139.9910   70.1010  221.0430 C   0  0  0  0  0  0  0  0  0  0  0  0
  140.8740   71.1700  221.2050 C   0  0  0  0  0  0  0  0  0  0  0  0
  140.8340   71.9410  222.3690 C   0  0  0  0  0  0  0  0  0  0  0  0
  139.9120   71.6440  223.3760 C   0  0  0  0  0  0  0  0  0  0  0  0
  139.0150   70.5740  223.2210 C   0  0  0  0  0  0  0  0  0  0  0  0
  138.0530   70.2250  224.3340 C   0  0  2  0  0  0  0  0  0  0  0  0
  138.7890   69.5180  225.4420 C   0  0  0  0  0  0  0  0  0  0  0  0
  138.7960   68.1480  225.6960 C   0  0  0  0  0  0  0  0  0  0  0  0
  139.6100   67.8640  226.7370 N   0  0  0  0  0  0  0  0  0  0  0  0
  140.1260   69.0380  227.1370 C   0  0  0  0  0  0  0  0  0  0  0  0
  141.0340   69.2510  228.1740 C   0  0  0  0  0  0  0  0  0  0  0  0
  141.4600   70.5700  228.4150 C   0  0  0  0  0  0  0  0  0  0  0  0
  140.9770   71.6340  227.6210 C   0  0  0  0  0  0  0  0  0  0  0  0
  140.0630   71.3900  226.5810 C   0  0  0  0  0  0  0  0  0  0  0  0
  139.6540   70.0710  226.3680 C   0  0  0  0  0  0  0  0  0  0  0  0
  134.7441   70.7150  222.6734 H   0  0  0  0  0  0  0  0  0  0  0  0
  133.3346   70.2677  223.7000 H   0  0  0  0  0  0  0  0  0  0  0  0
  132.8606   71.5271  225.8045 H   0  0  0  0  0  0  0  0  0  0  0  0
  133.0480   73.7169  226.9845 H   0  0  0  0  0  0  0  0  0  0  0  0
  134.6891   75.4270  226.1971 H   0  0  0  0  0  0  0  0  0  0  0  0
  136.1470   74.9447  224.2287 H   0  0  0  0  0  0  0  0  0  0  0  0
  135.9789   72.7505  223.0531 H   0  0  0  0  0  0  0  0  0  0  0  0
  136.3854   67.6953  222.5561 H   0  0  0  0  0  0  0  0  0  0  0  0
  138.2114   68.0167  220.9990 H   0  0  0  0  0  0  0  0  0  0  0  0
  140.0277   69.4940  220.1264 H   0  0  0  0  0  0  0  0  0  0  0  0
  141.6022   71.4055  220.4149 H   0  0  0  0  0  0  0  0  0  0  0  0
  141.5299   72.7838  222.4932 H   0  0  0  0  0  0  0  0  0  0  0  0
  139.8884   72.2503  224.2936 H   0  0  0  0  0  0  0  0  0  0  0  0
  137.6214   71.1639  224.7111 H   0  0  0  0  0  0  0  0  0  0  0  0
  138.2198   67.4021  225.1288 H   0  0  0  0  0  0  0  0  0  0  0  0
  139.8050   66.9190  227.1380 H   0  0  0  0  0  0  0  0  0  0  0  0
  141.4052   68.4143  228.7840 H   0  0  0  0  0  0  0  0  0  0  0  0
  142.1737   70.7741  229.2268 H   0  0  0  0  0  0  0  0  0  0  0  0
  141.3186   72.6609  227.8179 H   0  0  0  0  0  0  0  0  0  0  0  0
  139.6823   72.2107  225.9553 H   0  0  0  0  0  0  0  0  0  0  0  0
  1  2  2  0
  2  3  2  0
  2  4  1  0
  4  5  1  0
  5  6  2  0
  6  7  1  0
  7  8  2  0
  8  9  1  0
  9 10  2  0
  2 11  1  0
 11 12  1  0
 12 13  2  0
 13 14  1  0
 14 15  2  0
 15 16  1  0
 16 17  2  0
 17 18  1  0
 18 19  2  0
 19 20  1  0
 20 21  1  0
 21 22  2  0
 22 23  1  0
 23 24  1  0
 24 25  2  0
 25 26  1  0
 26 27  2  0
 27 28  1  0
 28 29  2  0
 10  5  1  0
 20 11  1  0
 29 21  1  0
 19 14  1  0
 29 24  1  0
  4 30  1  0
  4 31  1  0
  6 32  1  0
  7 33  1  0
  8 34  1  0
  9 35  1  0
 10 36  1  0
 12 37  1  0
 13 38  1  0
 15 39  1  0
 16 40  1  0
 17 41  1  0
 18 42  1  0
 20 43  1  1
 22 44  1  0
 23 45  1  0
 25 46  1  0
 26 47  1  0
 27 48  1  0
 28 49  1  0
M  END
>  <meeko>  (9) 
{"free_energy": -8.29, "intermolecular_energy": -9.48, "internal_energy": -1.92, "cluster_size": 6, "cluster_id": 2, "rank_in_cluster": 3}

$$$$

     RDKit          3D

 49 53  0  0  0  0  0  0  0  0999 V2000
  143.7290   80.2420  223.0880 O   0  0  0  0  0  0  0  0  0  0  0  0
  142.2750   79.8600  223.0700 S   0  0  0  0  0  0  0  0  0  0  0  0
  142.0600   78.7370  224.0460 O   0  0  0  0  0  0  0  0  0  0  0  0
  141.2770   81.2630  223.5430 C   0  0  0  0  0  0  0  0  0  0  0  0
  139.8290   80.9860  223.2520 C   0  0  0  0  0  0  0  0  0  0  0  0
  139.1500   79.9650  223.9400 C   0  0  0  0  0  0  0  0  0  0  0  0
  137.7800   79.7730  223.7440 C   0  0  0  0  0  0  0  0  0  0  0  0
  137.0770   80.5950  222.8590 C   0  0  0  0  0  0  0  0  0  0  0  0
  137.7440   81.6120  222.1710 C   0  0  0  0  0  0  0  0  0  0  0  0
  139.1140   81.8120  222.3680 C   0  0  0  0  0  0  0  0  0  0  0  0
  141.8250   79.3500  221.4720 N   0  0  0  0  0  0  0  0  0  0  0  0
  141.4990   80.3440  220.4850 C   0  0  0  0  0  0  0  0  0  0  0  0
  141.5640   80.0570  219.1870 C   0  0  0  0  0  0  0  0  0  0  0  0
  141.9880   78.7210  218.7380 C   0  0  0  0  0  0  0  0  0  0  0  0
  142.2360   78.4800  217.3780 C   0  0  0  0  0  0  0  0  0  0  0  0
  142.6740   77.2220  216.9570 C   0  0  0  0  0  0  0  0  0  0  0  0
  142.8640   76.1990  217.8870 C   0  0  0  0  0  0  0  0  0  0  0  0
  142.6150   76.4270  219.2430 C   0  0  0  0  0  0  0  0  0  0  0  0
  142.1780   77.6890  219.6790 C   0  0  0  0  0  0  0  0  0  0  0  0
  141.8610   77.9180  221.1400 C   0  0  2  0  0  0  0  0  0  0  0  0
  140.5390   77.2840  221.4800 C   0  0  0  0  0  0  0  0  0  0  0  0
  140.3250   76.2230  222.3590 C   0  0  0  0  0  0  0  0  0  0  0  0
  139.0050   75.9530  222.4620 N   0  0  0  0  0  0  0  0  0  0  0  0
  138.3800   76.8370  221.6660 C   0  0  0  0  0  0  0  0  0  0  0  0
  137.0070   76.9600  221.4550 C   0  0  0  0  0  0  0  0  0  0  0  0
  136.5630   77.9730  220.5870 C   0  0  0  0  0  0  0  0  0  0  0  0
  137.4900   78.8330  219.9590 C   0  0  0  0  0  0  0  0  0  0  0  0
  138.8690   78.6880  220.1910 C   0  0  0  0  0  0  0  0  0  0  0  0
  139.2820   77.6700  221.0540 C   0  0  0  0  0  0  0  0  0  0  0  0
  141.4023   81.4528  224.6192 H   0  0  0  0  0  0  0  0  0  0  0  0
  141.5983   82.1444  222.9686 H   0  0  0  0  0  0  0  0  0  0  0  0
  139.6999   79.3143  224.6358 H   0  0  0  0  0  0  0  0  0  0  0  0
  137.2541   78.9739  224.2870 H   0  0  0  0  0  0  0  0  0  0  0  0
  135.9988   80.4414  222.7040 H   0  0  0  0  0  0  0  0  0  0  0  0
  137.1902   82.2568  221.4728 H   0  0  0  0  0  0  0  0  0  0  0  0
  139.6335   82.6182  221.8294 H   0  0  0  0  0  0  0  0  0  0  0  0
  141.1931   81.3507  220.8058 H   0  0  0  0  0  0  0  0  0  0  0  0
  141.2989   80.8239  218.4443 H   0  0  0  0  0  0  0  0  0  0  0  0
  142.0852   79.2833  216.6419 H   0  0  0  0  0  0  0  0  0  0  0  0
  142.8695   77.0375  215.8904 H   0  0  0  0  0  0  0  0  0  0  0  0
  143.2107   75.2104  217.5517 H   0  0  0  0  0  0  0  0  0  0  0  0
  142.7616   75.6158  219.9713 H   0  0  0  0  0  0  0  0  0  0  0  0
  142.6621   77.4544  221.7343 H   0  0  0  0  0  0  0  0  0  0  0  0
  141.1194   75.6816  222.8937 H   0  0  0  0  0  0  0  0  0  0  0  0
  138.5620   75.2120  223.0520 H   0  0  0  0  0  0  0  0  0  0  0  0
  136.2939   76.2858  221.9520 H   0  0  0  0  0  0  0  0  0  0  0  0
  135.4867   78.0963  220.3960 H   0  0  0  0  0  0  0  0  0  0  0  0
  137.1305   79.6227  219.2829 H   0  0  0  0  0  0  0  0  0  0  0  0
  139.5991   79.3545  219.7086 H   0  0  0  0  0  0  0  0  0  0  0  0
  1  2  2  0
  2  3  2  0
  2  4  1  0
  4  5  1  0
  5  6  2  0
  6  7  1  0
  7  8  2  0
  8  9  1  0
  9 10  2  0
  2 11  1  0
 11 12  1  0
 12 13  2  0
 13 14  1  0
 14 15  2  0
 15 16  1  0
 16 17  2  0
 17 18  1  0
 18 19  2  0
 19 20  1  0
 20 21  1  0
 21 22  2  0
 22 23  1  0
 23 24  1  0
 24 25  2  0
 25 26  1  0
 26 27  2  0
 27 28  1  0
 28 29  2  0
 10  5  1  0
 20 11  1  0
 29 21  1  0
 19 14  1  0
 29 24  1  0
  4 30  1  0
  4 31  1  0
  6 32  1  0
  7 33  1  0
  8 34  1  0
  9 35  1  0
 10 36  1  0
 12 37  1  0
 13 38  1  0
 15 39  1  0
 16 40  1  0
 17 41  1  0
 18 42  1  0
 20 43  1  1
 22 44  1  0
 23 45  1  0
 25 46  1  0
 26 47  1  0
 27 48  1  0
 28 49  1  0
M  END
>  <meeko>  (10) 
{"free_energy": -6.76, "intermolecular_energy": -7.95, "internal_energy": -2.96, "cluster_size": 6, "cluster_id": 4, "rank_in_cluster": 3}

$$$$

     RDKit          3D

 49 53  0  0  0  0  0  0  0  0999 V2000
  138.9300   75.6000  220.3010 O   0  0  0  0  0  0  0  0  0  0  0  0
  140.3280   75.8560  220.7890 S   0  0  0  0  0  0  0  0  0  0  0  0
  140.5990   74.9610  221.9660 O   0  0  0  0  0  0  0  0  0  0  0  0
  141.4960   75.4990  219.4850 C   0  0  0  0  0  0  0  0  0  0  0  0
  142.6410   74.6890  220.0280 C   0  0  0  0  0  0  0  0  0  0  0  0
  142.4540   73.3390  220.3710 C   0  0  0  0  0  0  0  0  0  0  0  0
  143.5390   72.5590  220.7800 C   0  0  0  0  0  0  0  0  0  0  0  0
  144.8170   73.1200  220.8510 C   0  0  0  0  0  0  0  0  0  0  0  0
  145.0110   74.4620  220.5120 C   0  0  0  0  0  0  0  0  0  0  0  0
  143.9290   75.2440  220.0970 C   0  0  0  0  0  0  0  0  0  0  0  0
  140.4880   77.5200  221.2590 N   0  0  0  0  0  0  0  0  0  0  0  0
  139.3210   78.2410  221.6930 C   0  0  0  0  0  0  0  0  0  0  0  0
  139.4400   79.3350  222.4430 C   0  0  0  0  0  0  0  0  0  0  0  0
  140.7680   79.8160  222.8550 C   0  0  0  0  0  0  0  0  0  0  0  0
  140.8820   80.8520  223.7950 C   0  0  0  0  0  0  0  0  0  0  0  0
  142.1420   81.2840  224.2150 C   0  0  0  0  0  0  0  0  0  0  0  0
  143.2950   80.6880  223.6980 C   0  0  0  0  0  0  0  0  0  0  0  0
  143.1920   79.6590  222.7580 C   0  0  0  0  0  0  0  0  0  0  0  0
  141.9300   79.2130  222.3330 C   0  0  0  0  0  0  0  0  0  0  0  0
  141.8230   78.1350  221.2780 C   0  0  2  0  0  0  0  0  0  0  0  0
  142.1360   78.7130  219.9240 C   0  0  0  0  0  0  0  0  0  0  0  0
  142.7390   78.0520  218.8540 C   0  0  0  0  0  0  0  0  0  0  0  0
  142.8120   78.8650  217.7760 N   0  0  0  0  0  0  0  0  0  0  0  0
  142.2530   80.0280  218.1490 C   0  0  0  0  0  0  0  0  0  0  0  0
  142.0850   81.1720  217.3690 C   0  0  0  0  0  0  0  0  0  0  0  0
  141.4540   82.2830  217.9560 C   0  0  0  0  0  0  0  0  0  0  0  0
  141.0080   82.2270  219.2950 C   0  0  0  0  0  0  0  0  0  0  0  0
  141.1890   81.0600  220.0590 C   0  0  0  0  0  0  0  0  0  0  0  0
  141.8230   79.9740  219.4510 C   0  0  0  0  0  0  0  0  0  0  0  0
  140.9918   74.9299  218.6901 H   0  0  0  0  0  0  0  0  0  0  0  0
  141.8835   76.4447  219.0782 H   0  0  0  0  0  0  0  0  0  0  0  0
  141.4493   72.8944  220.3173 H   0  0  0  0  0  0  0  0  0  0  0  0
  143.3870   71.5026  221.0463 H   0  0  0  0  0  0  0  0  0  0  0  0
  145.6703   72.5054  221.1737 H   0  0  0  0  0  0  0  0  0  0  0  0
  146.0167   74.9036  220.5718 H   0  0  0  0  0  0  0  0  0  0  0  0
  144.0872   76.2977  219.8236 H   0  0  0  0  0  0  0  0  0  0  0  0
  138.3214   77.8854  221.4027 H   0  0  0  0  0  0  0  0  0  0  0  0
  138.5392   79.8828  222.7566 H   0  0  0  0  0  0  0  0  0  0  0  0
  139.9763   81.3251  224.2021 H   0  0  0  0  0  0  0  0  0  0  0  0
  142.2267   82.0945  224.9538 H   0  0  0  0  0  0  0  0  0  0  0  0
  144.2860   81.0294  224.0316 H   0  0  0  0  0  0  0  0  0  0  0  0
  144.1027   79.1967  222.3495 H   0  0  0  0  0  0  0  0  0  0  0  0
  142.5517   77.3495  221.5267 H   0  0  0  0  0  0  0  0  0  0  0  0
  143.1040   77.0147  218.8830 H   0  0  0  0  0  0  0  0  0  0  0  0
  143.2130   78.6280  216.8410 H   0  0  0  0  0  0  0  0  0  0  0  0
  142.4354   81.2041  216.3268 H   0  0  0  0  0  0  0  0  0  0  0  0
  141.3068   83.2014  217.3688 H   0  0  0  0  0  0  0  0  0  0  0  0
  140.5155   83.1024  219.7435 H   0  0  0  0  0  0  0  0  0  0  0  0
  140.8425   81.0044  221.1015 H   0  0  0  0  0  0  0  0  0  0  0  0
  1  2  2  0
  2  3  2  0
  2  4  1  0
  4  5  1  0
  5  6  2  0
  6  7  1  0
  7  8  2  0
  8  9  1  0
  9 10  2  0
  2 11  1  0
 11 12  1  0
 12 13  2  0
 13 14  1  0
 14 15  2  0
 15 16  1  0
 16 17  2  0
 17 18  1  0
 18 19  2  0
 19 20  1  0
 20 21  1  0
 21 22  2  0
 22 23  1  0
 23 24  1  0
 24 25  2  0
 25 26  1  0
 26 27  2  0
 27 28  1  0
 28 29  2  0
 10  5  1  0
 20 11  1  0
 29 21  1  0
 19 14  1  0
 29 24  1  0
  4 30  1  0
  4 31  1  0
  6 32  1  0
  7 33  1  0
  8 34  1  0
  9 35  1  0
 10 36  1  0
 12 37  1  0
 13 38  1  0
 15 39  1  0
 16 40  1  0
 17 41  1  0
 18 42  1  0
 20 43  1  1
 22 44  1  0
 23 45  1  0
 25 46  1  0
 26 47  1  0
 27 48  1  0
 28 49  1  0
M  END
>  <meeko>  (11) 
{"free_energy": -8.5, "intermolecular_energy": -9.7, "internal_energy": -1.65, "cluster_size": 5, "cluster_id": 1, "rank_in_cluster": 2}

$$$$

     RDKit          3D

 49 53  0  0  0  0  0  0  0  0999 V2000
  138.6050   79.6430  218.0650 O   0  0  0  0  0  0  0  0  0  0  0  0
  138.6030   80.8740  218.9280 S   0  0  0  0  0  0  0  0  0  0  0  0
  138.5780   82.0850  218.0380 O   0  0  0  0  0  0  0  0  0  0  0  0
  137.1580   80.8720  219.9770 C   0  0  0  0  0  0  0  0  0  0  0  0
  137.5510   80.5470  221.3920 C   0  0  0  0  0  0  0  0  0  0  0  0
  137.6350   79.2090  221.8150 C   0  0  0  0  0  0  0  0  0  0  0  0
  138.0970   78.9030  223.0980 C   0  0  0  0  0  0  0  0  0  0  0  0
  138.4760   79.9290  223.9680 C   0  0  0  0  0  0  0  0  0  0  0  0
  138.3950   81.2620  223.5550 C   0  0  0  0  0  0  0  0  0  0  0  0
  137.9390   81.5720  222.2710 C   0  0  0  0  0  0  0  0  0  0  0  0
  140.0300   80.8940  219.9180 N   0  0  0  0  0  0  0  0  0  0  0  0
  140.6400   82.1550  220.2430 C   0  0  0  0  0  0  0  0  0  0  0  0
  141.4410   82.2690  221.3000 C   0  0  0  0  0  0  0  0  0  0  0  0
  141.7020   81.1090  222.1660 C   0  0  0  0  0  0  0  0  0  0  0  0
  142.3890   81.2740  223.3780 C   0  0  0  0  0  0  0  0  0  0  0  0
  142.6050   80.1800  224.2180 C   0  0  0  0  0  0  0  0  0  0  0  0
  142.1400   78.9140  223.8540 C   0  0  0  0  0  0  0  0  0  0  0  0
  141.4590   78.7380  222.6460 C   0  0  0  0  0  0  0  0  0  0  0  0
  141.2320   79.8330  221.7960 C   0  0  0  0  0  0  0  0  0  0  0  0
  140.5390   79.6290  220.4670 C   0  0  2  0  0  0  0  0  0  0  0  0
  141.4910   78.9960  219.4870 C   0  0  0  0  0  0  0  0  0  0  0  0
  142.1410   79.6290  218.4290 C   0  0  0  0  0  0  0  0  0  0  0  0
  142.9630   78.7640  217.7940 N   0  0  0  0  0  0  0  0  0  0  0  0
  142.8490   77.5950  218.4450 C   0  0  0  0  0  0  0  0  0  0  0  0
  143.5180   76.4040  218.1650 C   0  0  0  0  0  0  0  0  0  0  0  0
  143.2600   75.2940  218.9890 C   0  0  0  0  0  0  0  0  0  0  0  0
  142.3520   75.3990  220.0660 C   0  0  0  0  0  0  0  0  0  0  0  0
  141.6920   76.6130  220.3270 C   0  0  0  0  0  0  0  0  0  0  0  0
  141.9640   77.6960  219.4880 C   0  0  0  0  0  0  0  0  0  0  0  0
  136.6859   81.8651  219.9489 H   0  0  0  0  0  0  0  0  0  0  0  0
  136.4497   80.1122  219.6150 H   0  0  0  0  0  0  0  0  0  0  0  0
  137.3358   78.3993  221.1332 H   0  0  0  0  0  0  0  0  0  0  0  0
  138.1624   77.8542  223.4232 H   0  0  0  0  0  0  0  0  0  0  0  0
  138.8382   79.6875  224.9782 H   0  0  0  0  0  0  0  0  0  0  0  0
  138.6908   82.0685  224.2421 H   0  0  0  0  0  0  0  0  0  0  0  0
  137.8836   82.6219  221.9475 H   0  0  0  0  0  0  0  0  0  0  0  0
  140.4427   83.0341  219.6119 H   0  0  0  0  0  0  0  0  0  0  0  0
  141.9109   83.2372  221.5274 H   0  0  0  0  0  0  0  0  0  0  0  0
  142.7588   82.2687  223.6675 H   0  0  0  0  0  0  0  0  0  0  0  0
  143.1423   80.3152  225.1683 H   0  0  0  0  0  0  0  0  0  0  0  0
  142.3100   78.0544  224.5189 H   0  0  0  0  0  0  0  0  0  0  0  0
  141.0996   77.7385  222.3600 H   0  0  0  0  0  0  0  0  0  0  0  0
  139.6789   78.9643  220.6354 H   0  0  0  0  0  0  0  0  0  0  0  0
  142.0043   80.6842  218.1500 H   0  0  0  0  0  0  0  0  0  0  0  0
  143.5720   78.9710  216.9700 H   0  0  0  0  0  0  0  0  0  0  0  0
  144.2256   76.3349  217.3256 H   0  0  0  0  0  0  0  0  0  0  0  0
  143.7683   74.3382  218.7937 H   0  0  0  0  0  0  0  0  0  0  0  0
  142.1598   74.5247  220.7052 H   0  0  0  0  0  0  0  0  0  0  0  0
  140.9848   76.7066  221.1643 H   0  0  0  0  0  0  0  0  0  0  0  0
  1  2  2  0
  2  3  2  0
  2  4  1  0
  4  5  1  0
  5  6  2  0
  6  7  1  0
  7  8  2  0
  8  9  1  0
  9 10  2  0
  2 11  1  0
 11 12  1  0
 12 13  2  0
 13 14  1  0
 14 15  2  0
 15 16  1  0
 16 17  2  0
 17 18  1  0
 18 19  2  0
 19 20  1  0
 20 21  1  0
 21 22  2  0
 22 23  1  0
 23 24  1  0
 24 25  2  0
 25 26  1  0
 26 27  2  0
 27 28  1  0
 28 29  2  0
 10  5  1  0
 20 11  1  0
 29 21  1  0
 19 14  1  0
 29 24  1  0
  4 30  1  0
  4 31  1  0
  6 32  1  0
  7 33  1  0
  8 34  1  0
  9 35  1  0
 10 36  1  0
 12 37  1  0
 13 38  1  0
 15 39  1  0
 16 40  1  0
 17 41  1  0
 18 42  1  0
 20 43  1  1
 22 44  1  0
 23 45  1  0
 25 46  1  0
 26 47  1  0
 27 48  1  0
 28 49  1  0
M  END
>  <meeko>  (12) 
{"free_energy": -6.89, "intermolecular_energy": -8.08, "internal_energy": -2.76, "cluster_size": 3, "cluster_id": 3, "rank_in_cluster": 1}

$$$$

     RDKit          3D

 49 53  0  0  0  0  0  0  0  0999 V2000
  138.9930   75.6040  220.3690 O   0  0  0  0  0  0  0  0  0  0  0  0
  140.4070   75.8980  220.7840 S   0  0  0  0  0  0  0  0  0  0  0  0
  140.7670   75.0020  221.9360 O   0  0  0  0  0  0  0  0  0  0  0  0
  141.5140   75.5880  219.4170 C   0  0  0  0  0  0  0  0  0  0  0  0
  142.6630   74.7320  219.8710 C   0  0  0  0  0  0  0  0  0  0  0  0
  143.9450   75.2890  220.0210 C   0  0  0  0  0  0  0  0  0  0  0  0
  144.9920   74.5200  220.5380 C   0  0  0  0  0  0  0  0  0  0  0  0
  144.7670   73.1910  220.9080 C   0  0  0  0  0  0  0  0  0  0  0  0
  143.4960   72.6300  220.7620 C   0  0  0  0  0  0  0  0  0  0  0  0
  142.4450   73.3970  220.2500 C   0  0  0  0  0  0  0  0  0  0  0  0
  140.5410   77.5620  221.2630 N   0  0  0  0  0  0  0  0  0  0  0  0
  139.3690   78.2550  221.7260 C   0  0  0  0  0  0  0  0  0  0  0  0
  139.4800   79.3460  222.4800 C   0  0  0  0  0  0  0  0  0  0  0  0
  140.8050   79.8530  222.8690 C   0  0  0  0  0  0  0  0  0  0  0  0
  140.9170   80.8850  223.8130 C   0  0  0  0  0  0  0  0  0  0  0  0
  142.1760   81.3410  224.2090 C   0  0  0  0  0  0  0  0  0  0  0  0
  143.3300   80.7730  223.6650 C   0  0  0  0  0  0  0  0  0  0  0  0
  143.2300   79.7490  222.7200 C   0  0  0  0  0  0  0  0  0  0  0  0
  141.9690   79.2780  222.3180 C   0  0  0  0  0  0  0  0  0  0  0  0
  141.8630   78.2050  221.2580 C   0  0  2  0  0  0  0  0  0  0  0  0
  142.1350   78.7980  219.9020 C   0  0  0  0  0  0  0  0  0  0  0  0
  142.7120   78.1520  218.8090 C   0  0  0  0  0  0  0  0  0  0  0  0
  142.7510   78.9760  217.7380 N   0  0  0  0  0  0  0  0  0  0  0  0
  142.1960   80.1320  218.1380 C   0  0  0  0  0  0  0  0  0  0  0  0
  142.0000   81.2820  217.3740 C   0  0  0  0  0  0  0  0  0  0  0  0
  141.3800   82.3840  217.9900 C   0  0  0  0  0  0  0  0  0  0  0  0
  140.9720   82.3120  219.3400 C   0  0  0  0  0  0  0  0  0  0  0  0
  141.1800   81.1380  220.0870 C   0  0  0  0  0  0  0  0  0  0  0  0
  141.8020   80.0620  219.4500 C   0  0  0  0  0  0  0  0  0  0  0  0
  140.9673   75.0691  218.6158 H   0  0  0  0  0  0  0  0  0  0  0  0
  141.9031   76.5463  219.0425 H   0  0  0  0  0  0  0  0  0  0  0  0
  144.1252   76.3345  219.7303 H   0  0  0  0  0  0  0  0  0  0  0  0
  145.9931   74.9610  220.6536 H   0  0  0  0  0  0  0  0  0  0  0  0
  145.5913   72.5865  221.3144 H   0  0  0  0  0  0  0  0  0  0  0  0
  143.3217   71.5829  221.0504 H   0  0  0  0  0  0  0  0  0  0  0  0
  141.4440   72.9535  220.1436 H   0  0  0  0  0  0  0  0  0  0  0  0
  138.3713   77.8797  221.4543 H   0  0  0  0  0  0  0  0  0  0  0  0
  138.5741   79.8726  222.8148 H   0  0  0  0  0  0  0  0  0  0  0  0
  140.0103   81.3362  224.2424 H   0  0  0  0  0  0  0  0  0  0  0  0
  142.2590   82.1490  224.9508 H   0  0  0  0  0  0  0  0  0  0  0  0
  144.3202   81.1328  223.9814 H   0  0  0  0  0  0  0  0  0  0  0  0
  144.1419   79.3099  222.2891 H   0  0  0  0  0  0  0  0  0  0  0  0
  142.6135   77.4337  221.4856 H   0  0  0  0  0  0  0  0  0  0  0  0
  143.0835   77.1167  218.8172 H   0  0  0  0  0  0  0  0  0  0  0  0
  143.1270   78.7510  216.7900 H   0  0  0  0  0  0  0  0  0  0  0  0
  142.3202   81.3259  216.3226 H   0  0  0  0  0  0  0  0  0  0  0  0
  141.2119   83.3076  217.4167 H   0  0  0  0  0  0  0  0  0  0  0  0
  140.4880   83.1802  219.8111 H   0  0  0  0  0  0  0  0  0  0  0  0
  140.8631   81.0699  221.1382 H   0  0  0  0  0  0  0  0  0  0  0  0
  1  2  2  0
  2  3  2  0
  2  4  1  0
  4  5  1  0
  5  6  2  0
  6  7  1  0
  7  8  2  0
  8  9  1  0
  9 10  2  0
  2 11  1  0
 11 12  1  0
 12 13  2  0
 13 14  1  0
 14 15  2  0
 15 16  1  0
 16 17  2  0
 17 18  1  0
 18 19  2  0
 19 20  1  0
 20 21  1  0
 21 22  2  0
 22 23  1  0
 23 24  1  0
 24 25  2  0
 25 26  1  0
 26 27  2  0
 27 28  1  0
 28 29  2  0
 10  5  1  0
 20 11  1  0
 29 21  1  0
 19 14  1  0
 29 24  1  0
  4 30  1  0
  4 31  1  0
  6 32  1  0
  7 33  1  0
  8 34  1  0
  9 35  1  0
 10 36  1  0
 12 37  1  0
 13 38  1  0
 15 39  1  0
 16 40  1  0
 17 41  1  0
 18 42  1  0
 20 43  1  1
 22 44  1  0
 23 45  1  0
 25 46  1  0
 26 47  1  0
 27 48  1  0
 28 49  1  0
M  END
>  <meeko>  (13) 
{"free_energy": -8.39, "intermolecular_energy": -9.58, "internal_energy": -1.62, "cluster_size": 5, "cluster_id": 1, "rank_in_cluster": 4}

$$$$

     RDKit          3D

 49 53  0  0  0  0  0  0  0  0999 V2000
  138.5930   79.5890  218.0670 O   0  0  0  0  0  0  0  0  0  0  0  0
  138.5910   80.8290  218.9160 S   0  0  0  0  0  0  0  0  0  0  0  0
  138.5680   82.0300  218.0130 O   0  0  0  0  0  0  0  0  0  0  0  0
  137.1440   80.8400  219.9630 C   0  0  0  0  0  0  0  0  0  0  0  0
  137.5320   80.5220  221.3800 C   0  0  0  0  0  0  0  0  0  0  0  0
  137.6210   79.1850  221.8070 C   0  0  0  0  0  0  0  0  0  0  0  0
  138.0790   78.8850  223.0930 C   0  0  0  0  0  0  0  0  0  0  0  0
  138.4490   79.9150  223.9620 C   0  0  0  0  0  0  0  0  0  0  0  0
  138.3630   81.2460  223.5450 C   0  0  0  0  0  0  0  0  0  0  0  0
  137.9110   81.5510  222.2580 C   0  0  0  0  0  0  0  0  0  0  0  0
  140.0160   80.8600  219.9090 N   0  0  0  0  0  0  0  0  0  0  0  0
  140.6170   82.1250  220.2320 C   0  0  0  0  0  0  0  0  0  0  0  0
  141.4160   82.2460  221.2900 C   0  0  0  0  0  0  0  0  0  0  0  0
  141.6830   81.0890  222.1600 C   0  0  0  0  0  0  0  0  0  0  0  0
  142.3660   81.2610  223.3720 C   0  0  0  0  0  0  0  0  0  0  0  0
  142.5870   80.1700  224.2150 C   0  0  0  0  0  0  0  0  0  0  0  0
  142.1300   78.9010  223.8520 C   0  0  0  0  0  0  0  0  0  0  0  0
  141.4520   78.7180  222.6440 C   0  0  0  0  0  0  0  0  0  0  0  0
  141.2200   79.8100  221.7910 C   0  0  0  0  0  0  0  0  0  0  0  0
  140.5310   79.5990  220.4610 C   0  0  2  0  0  0  0  0  0  0  0  0
  141.4890   78.9690  219.4850 C   0  0  0  0  0  0  0  0  0  0  0  0
  142.1380   79.6040  218.4280 C   0  0  0  0  0  0  0  0  0  0  0  0
  142.9660   78.7430  217.7950 N   0  0  0  0  0  0  0  0  0  0  0  0
  142.8560   77.5730  218.4470 C   0  0  0  0  0  0  0  0  0  0  0  0
  143.5310   76.3850  218.1700 C   0  0  0  0  0  0  0  0  0  0  0  0
  143.2760   75.2750  218.9950 C   0  0  0  0  0  0  0  0  0  0  0  0
  142.3650   75.3770  220.0690 C   0  0  0  0  0  0  0  0  0  0  0  0
  141.6990   76.5880  220.3270 C   0  0  0  0  0  0  0  0  0  0  0  0
  141.9680   77.6720  219.4880 C   0  0  0  0  0  0  0  0  0  0  0  0
  136.6766   81.8351  219.9279 H   0  0  0  0  0  0  0  0  0  0  0  0
  136.4332   80.0810  219.6044 H   0  0  0  0  0  0  0  0  0  0  0  0
  137.3290   78.3720  221.1261 H   0  0  0  0  0  0  0  0  0  0  0  0
  138.1482   77.8374  223.4213 H   0  0  0  0  0  0  0  0  0  0  0  0
  138.8080   79.6780  224.9744 H   0  0  0  0  0  0  0  0  0  0  0  0
  138.6518   82.0557  224.2313 H   0  0  0  0  0  0  0  0  0  0  0  0
  137.8519   82.5998  221.9317 H   0  0  0  0  0  0  0  0  0  0  0  0
  140.4149   83.0016  219.5990 H   0  0  0  0  0  0  0  0  0  0  0  0
  141.8800   83.2175  221.5156 H   0  0  0  0  0  0  0  0  0  0  0  0
  142.7290   82.2587  223.6599 H   0  0  0  0  0  0  0  0  0  0  0  0
  143.1216   80.3101  225.1661 H   0  0  0  0  0  0  0  0  0  0  0  0
  142.3043   78.0436  224.5187 H   0  0  0  0  0  0  0  0  0  0  0  0
  141.0987   77.7157  222.3600 H   0  0  0  0  0  0  0  0  0  0  0  0
  139.6742   78.9297  220.6280 H   0  0  0  0  0  0  0  0  0  0  0  0
  141.9964   80.6583  218.1479 H   0  0  0  0  0  0  0  0  0  0  0  0
  143.5760   78.9520  216.9730 H   0  0  0  0  0  0  0  0  0  0  0  0
  144.2408   76.3180  217.3324 H   0  0  0  0  0  0  0  0  0  0  0  0
  143.7894   74.3214  218.8024 H   0  0  0  0  0  0  0  0  0  0  0  0
  142.1750   74.5025  220.7086 H   0  0  0  0  0  0  0  0  0  0  0  0
  140.9892   76.6789  221.1624 H   0  0  0  0  0  0  0  0  0  0  0  0
  1  2  2  0
  2  3  2  0
  2  4  1  0
  4  5  1  0
  5  6  2  0
  6  7  1  0
  7  8  2  0
  8  9  1  0
  9 10  2  0
  2 11  1  0
 11 12  1  0
 12 13  2  0
 13 14  1  0
 14 15  2  0
 15 16  1  0
 16 17  2  0
 17 18  1  0
 18 19  2  0
 19 20  1  0
 20 21  1  0
 21 22  2  0
 22 23  1  0
 23 24  1  0
 24 25  2  0
 25 26  1  0
 26 27  2  0
 27 28  1  0
 28 29  2  0
 10  5  1  0
 20 11  1  0
 29 21  1  0
 19 14  1  0
 29 24  1  0
  4 30  1  0
  4 31  1  0
  6 32  1  0
  7 33  1  0
  8 34  1  0
  9 35  1  0
 10 36  1  0
 12 37  1  0
 13 38  1  0
 15 39  1  0
 16 40  1  0
 17 41  1  0
 18 42  1  0
 20 43  1  1
 22 44  1  0
 23 45  1  0
 25 46  1  0
 26 47  1  0
 27 48  1  0
 28 49  1  0
M  END
>  <meeko>  (14) 
{"free_energy": -6.88, "intermolecular_energy": -8.08, "internal_energy": -2.77, "cluster_size": 3, "cluster_id": 3, "rank_in_cluster": 3}

$$$$

     RDKit          3D

 49 53  0  0  0  0  0  0  0  0999 V2000
  138.9460   75.6230  220.3400 O   0  0  0  0  0  0  0  0  0  0  0  0
  140.3480   75.8880  220.8130 S   0  0  0  0  0  0  0  0  0  0  0  0
  140.6350   74.9970  221.9890 O   0  0  0  0  0  0  0  0  0  0  0  0
  141.5050   75.5360  219.4990 C   0  0  0  0  0  0  0  0  0  0  0  0
  142.6570   74.7300  220.0310 C   0  0  0  0  0  0  0  0  0  0  0  0
  142.4720   73.3860  220.3980 C   0  0  0  0  0  0  0  0  0  0  0  0
  143.5620   72.6070  220.7970 C   0  0  0  0  0  0  0  0  0  0  0  0
  144.8440   73.1640  220.8330 C   0  0  0  0  0  0  0  0  0  0  0  0
  145.0360   74.4990  220.4690 C   0  0  0  0  0  0  0  0  0  0  0  0
  143.9490   75.2800  220.0640 C   0  0  0  0  0  0  0  0  0  0  0  0
  140.5020   77.5540  221.2790 N   0  0  0  0  0  0  0  0  0  0  0  0
  139.3360   78.2670  221.7280 C   0  0  0  0  0  0  0  0  0  0  0  0
  139.4570   79.3620  222.4750 C   0  0  0  0  0  0  0  0  0  0  0  0
  140.7870   79.8540  222.8680 C   0  0  0  0  0  0  0  0  0  0  0  0
  140.9070   80.8920  223.8050 C   0  0  0  0  0  0  0  0  0  0  0  0
  142.1700   81.3330  224.2070 C   0  0  0  0  0  0  0  0  0  0  0  0
  143.3190   80.7450  223.6750 C   0  0  0  0  0  0  0  0  0  0  0  0
  143.2110   79.7140  222.7380 C   0  0  0  0  0  0  0  0  0  0  0  0
  141.9460   79.2590  222.3300 C   0  0  0  0  0  0  0  0  0  0  0  0
  141.8330   78.1780  221.2780 C   0  0  2  0  0  0  0  0  0  0  0  0
  142.1230   78.7560  219.9190 C   0  0  0  0  0  0  0  0  0  0  0  0
  142.6890   78.0910  218.8330 C   0  0  0  0  0  0  0  0  0  0  0  0
  142.7500   78.9070  217.7570 N   0  0  0  0  0  0  0  0  0  0  0  0
  142.2190   80.0770  218.1470 C   0  0  0  0  0  0  0  0  0  0  0  0
  142.0510   81.2270  217.3750 C   0  0  0  0  0  0  0  0  0  0  0  0
  141.4530   82.3450  217.9820 C   0  0  0  0  0  0  0  0  0  0  0  0
  141.0380   82.2910  219.3310 C   0  0  0  0  0  0  0  0  0  0  0  0
  141.2180   81.1180  220.0860 C   0  0  0  0  0  0  0  0  0  0  0  0
  141.8190   80.0250  219.4590 C   0  0  0  0  0  0  0  0  0  0  0  0
  140.9957   74.9657  218.7082 H   0  0  0  0  0  0  0  0  0  0  0  0
  141.8856   76.4833  219.0894 H   0  0  0  0  0  0  0  0  0  0  0  0
  141.4647   72.9450  220.3711 H   0  0  0  0  0  0  0  0  0  0  0  0
  143.4111   71.5555  221.0827 H   0  0  0  0  0  0  0  0  0  0  0  0
  145.7014   72.5510  221.1479 H   0  0  0  0  0  0  0  0  0  0  0  0
  146.0446   74.9369  220.5010 H   0  0  0  0  0  0  0  0  0  0  0  0
  144.1063   76.3283  219.7703 H   0  0  0  0  0  0  0  0  0  0  0  0
  138.3352   77.9039  221.4514 H   0  0  0  0  0  0  0  0  0  0  0  0
  138.5564   79.9030  222.8009 H   0  0  0  0  0  0  0  0  0  0  0  0
  140.0038   81.3596  224.2240 H   0  0  0  0  0  0  0  0  0  0  0  0
  142.2594   82.1448  224.9439 H   0  0  0  0  0  0  0  0  0  0  0  0
  144.3120   81.0942  223.9943 H   0  0  0  0  0  0  0  0  0  0  0  0
  144.1194   79.2571  222.3185 H   0  0  0  0  0  0  0  0  0  0  0  0
  142.5710   77.3982  221.5172 H   0  0  0  0  0  0  0  0  0  0  0  0
  143.0375   77.0478  218.8491 H   0  0  0  0  0  0  0  0  0  0  0  0
  143.1240   78.6670  216.8120 H   0  0  0  0  0  0  0  0  0  0  0  0
  142.3762   81.2578  216.3246 H   0  0  0  0  0  0  0  0  0  0  0  0
  141.3072   83.2684  217.4023 H   0  0  0  0  0  0  0  0  0  0  0  0
  140.5707   83.1725  219.7944 H   0  0  0  0  0  0  0  0  0  0  0  0
  140.8957   81.0636  221.1363 H   0  0  0  0  0  0  0  0  0  0  0  0
  1  2  2  0
  2  3  2  0
  2  4  1  0
  4  5  1  0
  5  6  2  0
  6  7  1  0
  7  8  2  0
  8  9  1  0
  9 10  2  0
  2 11  1  0
 11 12  1  0
 12 13  2  0
 13 14  1  0
 14 15  2  0
 15 16  1  0
 16 17  2  0
 17 18  1  0
 18 19  2  0
 19 20  1  0
 20 21  1  0
 21 22  2  0
 22 23  1  0
 23 24  1  0
 24 25  2  0
 25 26  1  0
 26 27  2  0
 27 28  1  0
 28 29  2  0
 10  5  1  0
 20 11  1  0
 29 21  1  0
 19 14  1  0
 29 24  1  0
  4 30  1  0
  4 31  1  0
  6 32  1  0
  7 33  1  0
  8 34  1  0
  9 35  1  0
 10 36  1  0
 12 37  1  0
 13 38  1  0
 15 39  1  0
 16 40  1  0
 17 41  1  0
 18 42  1  0
 20 43  1  1
 22 44  1  0
 23 45  1  0
 25 46  1  0
 26 47  1  0
 27 48  1  0
 28 49  1  0
M  END
>  <meeko>  (15) 
{"free_energy": -8.55, "intermolecular_energy": -9.74, "internal_energy": -1.61, "cluster_size": 5, "cluster_id": 1, "rank_in_cluster": 1}

$$$$

     RDKit          3D

 49 53  0  0  0  0  0  0  0  0999 V2000
  138.8640   75.4970  220.3340 O   0  0  0  0  0  0  0  0  0  0  0  0
  140.2860   75.7520  220.7490 S   0  0  0  0  0  0  0  0  0  0  0  0
  140.6170   74.8560  221.9100 O   0  0  0  0  0  0  0  0  0  0  0  0
  141.3840   75.3950  219.3860 C   0  0  0  0  0  0  0  0  0  0  0  0
  142.5500   74.5770  219.8670 C   0  0  0  0  0  0  0  0  0  0  0  0
  142.4410   73.1800  219.9710 C   0  0  0  0  0  0  0  0  0  0  0  0
  143.5550   72.4100  220.3200 C   0  0  0  0  0  0  0  0  0  0  0  0
  144.7830   73.0290  220.5700 C   0  0  0  0  0  0  0  0  0  0  0  0
  144.8990   74.4180  220.4680 C   0  0  0  0  0  0  0  0  0  0  0  0
  143.7900   75.1910  220.1130 C   0  0  0  0  0  0  0  0  0  0  0  0
  140.4700   77.4160  221.2110 N   0  0  0  0  0  0  0  0  0  0  0  0
  139.3140   78.1580  221.6350 C   0  0  0  0  0  0  0  0  0  0  0  0
  139.4460   79.2530  222.3790 C   0  0  0  0  0  0  0  0  0  0  0  0
  140.7800   79.7150  222.7970 C   0  0  0  0  0  0  0  0  0  0  0  0
  140.9060   80.7540  223.7310 C   0  0  0  0  0  0  0  0  0  0  0  0
  142.1710   81.1670  224.1550 C   0  0  0  0  0  0  0  0  0  0  0  0
  143.3160   80.5500  223.6480 C   0  0  0  0  0  0  0  0  0  0  0  0
  143.2010   79.5180  222.7130 C   0  0  0  0  0  0  0  0  0  0  0  0
  141.9340   79.0900  222.2830 C   0  0  0  0  0  0  0  0  0  0  0  0
  141.8160   78.0080  221.2330 C   0  0  2  0  0  0  0  0  0  0  0  0
  142.1450   78.5740  219.8780 C   0  0  0  0  0  0  0  0  0  0  0  0
  142.7710   77.9070  218.8260 C   0  0  0  0  0  0  0  0  0  0  0  0
  142.8540   78.7080  217.7400 N   0  0  0  0  0  0  0  0  0  0  0  0
  142.2780   79.8700  218.0900 C   0  0  0  0  0  0  0  0  0  0  0  0
  142.1120   81.0030  217.2940 C   0  0  0  0  0  0  0  0  0  0  0  0
  141.4620   82.1150  217.8590 C   0  0  0  0  0  0  0  0  0  0  0  0
  140.9950   82.0690  219.1910 C   0  0  0  0  0  0  0  0  0  0  0  0
  141.1750   80.9130  219.9710 C   0  0  0  0  0  0  0  0  0  0  0  0
  141.8280   79.8260  219.3850 C   0  0  0  0  0  0  0  0  0  0  0  0
  140.8371   74.8321  218.6153 H   0  0  0  0  0  0  0  0  0  0  0  0
  141.7553   76.3404  218.9638 H   0  0  0  0  0  0  0  0  0  0  0  0
  141.4754   72.6900  219.7771 H   0  0  0  0  0  0  0  0  0  0  0  0
  143.4648   71.3165  220.3978 H   0  0  0  0  0  0  0  0  0  0  0  0
  145.6581   72.4229  220.8470 H   0  0  0  0  0  0  0  0  0  0  0  0
  145.8654   74.9040  220.6676 H   0  0  0  0  0  0  0  0  0  0  0  0
  143.8880   76.2832  220.0259 H   0  0  0  0  0  0  0  0  0  0  0  0
  138.3103   77.8170  221.3413 H   0  0  0  0  0  0  0  0  0  0  0  0
  138.5523   79.8171  222.6840 H   0  0  0  0  0  0  0  0  0  0  0  0
  140.0062   81.2447  224.1305 H   0  0  0  0  0  0  0  0  0  0  0  0
  142.2653   81.9801  224.8899 H   0  0  0  0  0  0  0  0  0  0  0  0
  144.3107   80.8769  223.9852 H   0  0  0  0  0  0  0  0  0  0  0  0
  144.1063   79.0388  222.3120 H   0  0  0  0  0  0  0  0  0  0  0  0
  142.5308   77.2119  221.4885 H   0  0  0  0  0  0  0  0  0  0  0  0
  143.1451   76.8736  218.8729 H   0  0  0  0  0  0  0  0  0  0  0  0
  143.2720   78.4640  216.8140 H   0  0  0  0  0  0  0  0  0  0  0  0
  142.4779   81.0263  216.2569 H   0  0  0  0  0  0  0  0  0  0  0  0
  141.3165   83.0259  217.2598 H   0  0  0  0  0  0  0  0  0  0  0  0
  140.4865   82.9442  219.6216 H   0  0  0  0  0  0  0  0  0  0  0  0
  140.8134   80.8661  221.0088 H   0  0  0  0  0  0  0  0  0  0  0  0
  1  2  2  0
  2  3  2  0
  2  4  1  0
  4  5  1  0
  5  6  2  0
  6  7  1  0
  7  8  2  0
  8  9  1  0
  9 10  2  0
  2 11  1  0
 11 12  1  0
 12 13  2  0
 13 14  1  0
 14 15  2  0
 15 16  1  0
 16 17  2  0
 17 18  1  0
 18 19  2  0
 19 20  1  0
 20 21  1  0
 21 22  2  0
 22 23  1  0
 23 24  1  0
 24 25  2  0
 25 26  1  0
 26 27  2  0
 27 28  1  0
 28 29  2  0
 10  5  1  0
 20 11  1  0
 29 21  1  0
 19 14  1  0
 29 24  1  0
  4 30  1  0
  4 31  1  0
  6 32  1  0
  7 33  1  0
  8 34  1  0
  9 35  1  0
 10 36  1  0
 12 37  1  0
 13 38  1  0
 15 39  1  0
 16 40  1  0
 17 41  1  0
 18 42  1  0
 20 43  1  1
 22 44  1  0
 23 45  1  0
 25 46  1  0
 26 47  1  0
 27 48  1  0
 28 49  1  0
M  END
>  <meeko>  (16) 
{"free_energy": -8.28, "intermolecular_energy": -9.47, "internal_energy": -1.69, "cluster_size": 5, "cluster_id": 1, "rank_in_cluster": 5}

$$$$

     RDKit          3D

 49 53  0  0  0  0  0  0  0  0999 V2000
  139.0960   75.2090  220.3080 O   0  0  0  0  0  0  0  0  0  0  0  0
  140.4750   75.5850  220.7730 S   0  0  0  0  0  0  0  0  0  0  0  0
  140.8210   74.7540  221.9770 O   0  0  0  0  0  0  0  0  0  0  0  0
  141.6560   75.2700  219.4700 C   0  0  0  0  0  0  0  0  0  0  0  0
  142.8250   74.4960  220.0120 C   0  0  0  0  0  0  0  0  0  0  0  0
  142.6960   73.1250  220.2970 C   0  0  0  0  0  0  0  0  0  0  0  0
  143.8080   72.3820  220.7040 C   0  0  0  0  0  0  0  0  0  0  0  0
  145.0550   73.0010  220.8330 C   0  0  0  0  0  0  0  0  0  0  0  0
  145.1910   74.3630  220.5520 C   0  0  0  0  0  0  0  0  0  0  0  0
  144.0830   75.1090  220.1380 C   0  0  0  0  0  0  0  0  0  0  0  0
  140.5130   77.2710  221.1850 N   0  0  0  0  0  0  0  0  0  0  0  0
  139.2850   77.9380  221.5250 C   0  0  0  0  0  0  0  0  0  0  0  0
  139.2990   79.0640  222.2350 C   0  0  0  0  0  0  0  0  0  0  0  0
  140.5710   79.6370  222.7010 C   0  0  0  0  0  0  0  0  0  0  0  0
  140.5730   80.7110  223.6030 C   0  0  0  0  0  0  0  0  0  0  0  0
  141.7810   81.2310  224.0750 C   0  0  0  0  0  0  0  0  0  0  0  0
  142.9930   80.6850  223.6470 C   0  0  0  0  0  0  0  0  0  0  0  0
  143.0020   79.6180  222.7440 C   0  0  0  0  0  0  0  0  0  0  0  0
  141.7940   79.0840  222.2680 C   0  0  0  0  0  0  0  0  0  0  0  0
  141.8090   77.9630  221.2520 C   0  0  2  0  0  0  0  0  0  0  0  0
  142.1660   78.5090  219.8960 C   0  0  0  0  0  0  0  0  0  0  0  0
  142.8510   77.8410  218.8820 C   0  0  0  0  0  0  0  0  0  0  0  0
  142.9450   78.6190  217.7810 N   0  0  0  0  0  0  0  0  0  0  0  0
  142.3170   79.7680  218.0830 C   0  0  0  0  0  0  0  0  0  0  0  0
  142.1390   80.8750  217.2540 C   0  0  0  0  0  0  0  0  0  0  0  0
  141.4310   81.9760  217.7690 C   0  0  0  0  0  0  0  0  0  0  0  0
  140.9190   81.9440  219.0850 C   0  0  0  0  0  0  0  0  0  0  0  0
  141.1110   80.8130  219.8980 C   0  0  0  0  0  0  0  0  0  0  0  0
  141.8220   79.7380  219.3620 C   0  0  0  0  0  0  0  0  0  0  0  0
  141.1717   74.6875  218.6724 H   0  0  0  0  0  0  0  0  0  0  0  0
  142.0135   76.2291  219.0670 H   0  0  0  0  0  0  0  0  0  0  0  0
  141.7160   72.6351  220.1993 H   0  0  0  0  0  0  0  0  0  0  0  0
  143.7018   71.3093  220.9230 H   0  0  0  0  0  0  0  0  0  0  0  0
  145.9288   72.4159  221.1556 H   0  0  0  0  0  0  0  0  0  0  0  0
  146.1720   74.8496  220.6567 H   0  0  0  0  0  0  0  0  0  0  0  0
  144.1967   76.1791  219.9103 H   0  0  0  0  0  0  0  0  0  0  0  0
  138.3252   77.5137  221.1952 H   0  0  0  0  0  0  0  0  0  0  0  0
  138.3521   79.5697  222.4750 H   0  0  0  0  0  0  0  0  0  0  0  0
  139.6203   81.1455  223.9400 H   0  0  0  0  0  0  0  0  0  0  0  0
  141.7773   82.0715  224.7846 H   0  0  0  0  0  0  0  0  0  0  0  0
  143.9425   81.0954  224.0212 H   0  0  0  0  0  0  0  0  0  0  0  0
  143.9592   79.1951  222.4051 H   0  0  0  0  0  0  0  0  0  0  0  0
  142.5654   77.2305  221.5703 H   0  0  0  0  0  0  0  0  0  0  0  0
  143.2582   76.8226  218.9664 H   0  0  0  0  0  0  0  0  0  0  0  0
  143.4030   78.3690  216.8760 H   0  0  0  0  0  0  0  0  0  0  0  0
  142.5396   80.8869  216.2296 H   0  0  0  0  0  0  0  0  0  0  0  0
  141.2752   82.8671  217.1432 H   0  0  0  0  0  0  0  0  0  0  0  0
  140.3659   82.8104  219.4768 H   0  0  0  0  0  0  0  0  0  0  0  0
  140.7138   80.7765  220.9231 H   0  0  0  0  0  0  0  0  0  0  0  0
  1  2  2  0
  2  3  2  0
  2  4  1  0
  4  5  1  0
  5  6  2  0
  6  7  1  0
  7  8  2  0
  8  9  1  0
  9 10  2  0
  2 11  1  0
 11 12  1  0
 12 13  2  0
 13 14  1  0
 14 15  2  0
 15 16  1  0
 16 17  2  0
 17 18  1  0
 18 19  2  0
 19 20  1  0
 20 21  1  0
 21 22  2  0
 22 23  1  0
 23 24  1  0
 24 25  2  0
 25 26  1  0
 26 27  2  0
 27 28  1  0
 28 29  2  0
 10  5  1  0
 20 11  1  0
 29 21  1  0
 19 14  1  0
 29 24  1  0
  4 30  1  0
  4 31  1  0
  6 32  1  0
  7 33  1  0
  8 34  1  0
  9 35  1  0
 10 36  1  0
 12 37  1  0
 13 38  1  0
 15 39  1  0
 16 40  1  0
 17 41  1  0
 18 42  1  0
 20 43  1  1
 22 44  1  0
 23 45  1  0
 25 46  1  0
 26 47  1  0
 27 48  1  0
 28 49  1  0
M  END
>  <meeko>  (17) 
{"free_energy": -8.45, "intermolecular_energy": -9.65, "internal_energy": -1.62, "cluster_size": 5, "cluster_id": 1, "rank_in_cluster": 3}

$$$$

     RDKit          3D

 49 53  0  0  0  0  0  0  0  0999 V2000
  135.5840   69.6370  225.8790 O   0  0  0  0  0  0  0  0  0  0  0  0
  135.4690   69.4260  224.3960 S   0  0  0  0  0  0  0  0  0  0  0  0
  134.7140   68.1510  224.1470 O   0  0  0  0  0  0  0  0  0  0  0  0
  134.5880   70.7950  223.6600 C   0  0  0  0  0  0  0  0  0  0  0  0
  135.4880   71.5330  222.7080 C   0  0  0  0  0  0  0  0  0  0  0  0
  136.2090   72.6590  223.1430 C   0  0  0  0  0  0  0  0  0  0  0  0
  137.1220   73.2840  222.2890 C   0  0  0  0  0  0  0  0  0  0  0  0
  137.3210   72.7930  220.9960 C   0  0  0  0  0  0  0  0  0  0  0  0
  136.6080   71.6740  220.5560 C   0  0  0  0  0  0  0  0  0  0  0  0
  135.6980   71.0420  221.4080 C   0  0  0  0  0  0  0  0  0  0  0  0
  137.0550   69.3230  223.6950 N   0  0  0  0  0  0  0  0  0  0  0  0
  137.2730   68.4410  222.5810 C   0  0  0  0  0  0  0  0  0  0  0  0
  138.3050   68.6260  221.7610 C   0  0  0  0  0  0  0  0  0  0  0  0
  139.2320   69.7500  221.9700 C   0  0  0  0  0  0  0  0  0  0  0  0
  140.2010   70.0540  221.0030 C   0  0  0  0  0  0  0  0  0  0  0  0
  141.0570   71.1430  221.1840 C   0  0  0  0  0  0  0  0  0  0  0  0
  140.9520   71.9330  222.3310 C   0  0  0  0  0  0  0  0  0  0  0  0
  139.9930   71.6360  223.3030 C   0  0  0  0  0  0  0  0  0  0  0  0
  139.1240   70.5460  223.1290 C   0  0  0  0  0  0  0  0  0  0  0  0
  138.1220   70.1970  224.2060 C   0  0  2  0  0  0  0  0  0  0  0  0
  138.8220   69.5240  225.3570 C   0  0  0  0  0  0  0  0  0  0  0  0
  138.8080   68.1640  225.6620 C   0  0  0  0  0  0  0  0  0  0  0  0
  139.5930   67.9110  226.7320 N   0  0  0  0  0  0  0  0  0  0  0  0
  140.1130   69.0940  227.1010 C   0  0  0  0  0  0  0  0  0  0  0  0
  140.9980   69.3360  228.1510 C   0  0  0  0  0  0  0  0  0  0  0  0
  141.4330   70.6580  228.3540 C   0  0  0  0  0  0  0  0  0  0  0  0
  140.9810   71.6960  227.5100 C   0  0  0  0  0  0  0  0  0  0  0  0
  140.0890   71.4230  226.4570 C   0  0  0  0  0  0  0  0  0  0  0  0
  139.6710   70.1020  226.2830 C   0  0  0  0  0  0  0  0  0  0  0  0
  133.7133   70.4134  223.1128 H   0  0  0  0  0  0  0  0  0  0  0  0
  134.2604   71.4824  224.4538 H   0  0  0  0  0  0  0  0  0  0  0  0
  136.0539   73.0496  224.1596 H   0  0  0  0  0  0  0  0  0  0  0  0
  137.6846   74.1635  222.6352 H   0  0  0  0  0  0  0  0  0  0  0  0
  138.0386   73.2870  220.3244 H   0  0  0  0  0  0  0  0  0  0  0  0
  136.7635   71.2900  219.5370 H   0  0  0  0  0  0  0  0  0  0  0  0
  135.1444   70.1575  221.0600 H   0  0  0  0  0  0  0  0  0  0  0  0
  136.5802   67.6050  222.4045 H   0  0  0  0  0  0  0  0  0  0  0  0
  138.4662   67.9340  220.9213 H   0  0  0  0  0  0  0  0  0  0  0  0
  140.2873   69.4330  220.0992 H   0  0  0  0  0  0  0  0  0  0  0  0
  141.8147   71.3786  220.4222 H   0  0  0  0  0  0  0  0  0  0  0  0
  141.6260   72.7912  222.4696 H   0  0  0  0  0  0  0  0  0  0  0  0
  139.9183   72.2577  224.2074 H   0  0  0  0  0  0  0  0  0  0  0  0
  137.6571   71.1336  224.5475 H   0  0  0  0  0  0  0  0  0  0  0  0
  138.2376   67.4032  225.1089 H   0  0  0  0  0  0  0  0  0  0  0  0
  139.7680   66.9800  227.1730 H   0  0  0  0  0  0  0  0  0  0  0  0
  141.3451   68.5186  228.8002 H   0  0  0  0  0  0  0  0  0  0  0  0
  142.1293   70.8847  229.1749 H   0  0  0  0  0  0  0  0  0  0  0  0
  141.3291   72.7260  227.6772 H   0  0  0  0  0  0  0  0  0  0  0  0
  139.7325   72.2238  225.7925 H   0  0  0  0  0  0  0  0  0  0  0  0
  1  2  2  0
  2  3  2  0
  2  4  1  0
  4  5  1  0
  5  6  2  0
  6  7  1  0
  7  8  2  0
  8  9  1  0
  9 10  2  0
  2 11  1  0
 11 12  1  0
 12 13  2  0
 13 14  1  0
 14 15  2  0
 15 16  1  0
 16 17  2  0
 17 18  1  0
 18 19  2  0
 19 20  1  0
 20 21  1  0
 21 22  2  0
 22 23  1  0
 23 24  1  0
 24 25  2  0
 25 26  1  0
 26 27  2  0
 27 28  1  0
 28 29  2  0
 10  5  1  0
 20 11  1  0
 29 21  1  0
 19 14  1  0
 29 24  1  0
  4 30  1  0
  4 31  1  0
  6 32  1  0
  7 33  1  0
  8 34  1  0
  9 35  1  0
 10 36  1  0
 12 37  1  0
 13 38  1  0
 15 39  1  0
 16 40  1  0
 17 41  1  0
 18 42  1  0
 20 43  1  1
 22 44  1  0
 23 45  1  0
 25 46  1  0
 26 47  1  0
 27 48  1  0
 28 49  1  0
M  END
>  <meeko>  (18) 
{"free_energy": -7.31, "intermolecular_energy": -8.5, "internal_energy": -2.75, "cluster_size": 6, "cluster_id": 2, "rank_in_cluster": 6}

$$$$

     RDKit          3D

 49 53  0  0  0  0  0  0  0  0999 V2000
  138.5870   79.6310  218.0570 O   0  0  0  0  0  0  0  0  0  0  0  0
  138.5850   80.8610  218.9200 S   0  0  0  0  0  0  0  0  0  0  0  0
  138.5630   82.0730  218.0310 O   0  0  0  0  0  0  0  0  0  0  0  0
  137.1370   80.8610  219.9660 C   0  0  0  0  0  0  0  0  0  0  0  0
  137.5270   80.5430  221.3830 C   0  0  0  0  0  0  0  0  0  0  0  0
  137.6110   79.2070  221.8120 C   0  0  0  0  0  0  0  0  0  0  0  0
  138.0700   78.9070  223.0980 C   0  0  0  0  0  0  0  0  0  0  0  0
  138.4470   79.9370  223.9640 C   0  0  0  0  0  0  0  0  0  0  0  0
  138.3670   81.2680  223.5450 C   0  0  0  0  0  0  0  0  0  0  0  0
  137.9140   81.5720  222.2580 C   0  0  0  0  0  0  0  0  0  0  0  0
  140.0090   80.8790  219.9140 N   0  0  0  0  0  0  0  0  0  0  0  0
  140.6180   82.1390  220.2430 C   0  0  0  0  0  0  0  0  0  0  0  0
  141.4170   82.2510  221.3020 C   0  0  0  0  0  0  0  0  0  0  0  0
  141.6760   81.0890  222.1660 C   0  0  0  0  0  0  0  0  0  0  0  0
  142.3600   81.2510  223.3800 C   0  0  0  0  0  0  0  0  0  0  0  0
  142.5740   80.1550  224.2190 C   0  0  0  0  0  0  0  0  0  0  0  0
  142.1090   78.8910  223.8500 C   0  0  0  0  0  0  0  0  0  0  0  0
  141.4310   78.7170  222.6410 C   0  0  0  0  0  0  0  0  0  0  0  0
  141.2060   79.8140  221.7920 C   0  0  0  0  0  0  0  0  0  0  0  0
  140.5170   79.6120  220.4610 C   0  0  2  0  0  0  0  0  0  0  0  0
  141.4710   78.9810  219.4830 C   0  0  0  0  0  0  0  0  0  0  0  0
  142.1260   79.6170  218.4290 C   0  0  0  0  0  0  0  0  0  0  0  0
  142.9490   78.7530  217.7940 N   0  0  0  0  0  0  0  0  0  0  0  0
  142.8290   77.5810  218.4390 C   0  0  0  0  0  0  0  0  0  0  0  0
  143.4960   76.3900  218.1560 C   0  0  0  0  0  0  0  0  0  0  0  0
  143.2320   75.2770  218.9750 C   0  0  0  0  0  0  0  0  0  0  0  0
  142.3210   75.3790  220.0490 C   0  0  0  0  0  0  0  0  0  0  0  0
  141.6630   76.5940  220.3130 C   0  0  0  0  0  0  0  0  0  0  0  0
  141.9410   77.6800  219.4800 C   0  0  0  0  0  0  0  0  0  0  0  0
  136.6632   81.8532  219.9324 H   0  0  0  0  0  0  0  0  0  0  0  0
  136.4309   80.0983  219.6057 H   0  0  0  0  0  0  0  0  0  0  0  0
  137.3143   78.3941  221.1329 H   0  0  0  0  0  0  0  0  0  0  0  0
  138.1344   77.8598  223.4284 H   0  0  0  0  0  0  0  0  0  0  0  0
  138.8070   79.7001  224.9761 H   0  0  0  0  0  0  0  0  0  0  0  0
  138.6610   82.0776  224.2291 H   0  0  0  0  0  0  0  0  0  0  0  0
  137.8603   82.6203  221.9291 H   0  0  0  0  0  0  0  0  0  0  0  0
  140.4218   83.0194  219.6134 H   0  0  0  0  0  0  0  0  0  0  0  0
  141.8865   83.2187  221.5324 H   0  0  0  0  0  0  0  0  0  0  0  0
  142.7293   82.2451  223.6724 H   0  0  0  0  0  0  0  0  0  0  0  0
  143.1091   80.2876  225.1709 H   0  0  0  0  0  0  0  0  0  0  0  0
  142.2771   78.0297  224.5133 H   0  0  0  0  0  0  0  0  0  0  0  0
  141.0721   77.7180  222.3526 H   0  0  0  0  0  0  0  0  0  0  0  0
  139.6568   78.9463  220.6248 H   0  0  0  0  0  0  0  0  0  0  0  0
  141.9918   80.6733  218.1531 H   0  0  0  0  0  0  0  0  0  0  0  0
  143.5610   78.9620  216.9730 H   0  0  0  0  0  0  0  0  0  0  0  0
  144.2063   76.3226  217.3188 H   0  0  0  0  0  0  0  0  0  0  0  0
  143.7387   74.3209  218.7774 H   0  0  0  0  0  0  0  0  0  0  0  0
  142.1245   74.5023  220.6836 H   0  0  0  0  0  0  0  0  0  0  0  0
  140.9529   76.6857  221.1481 H   0  0  0  0  0  0  0  0  0  0  0  0
  1  2  2  0
  2  3  2  0
  2  4  1  0
  4  5  1  0
  5  6  2  0
  6  7  1  0
  7  8  2  0
  8  9  1  0
  9 10  2  0
  2 11  1  0
 11 12  1  0
 12 13  2  0
 13 14  1  0
 14 15  2  0
 15 16  1  0
 16 17  2  0
 17 18  1  0
 18 19  2  0
 19 20  1  0
 20 21  1  0
 21 22  2  0
 22 23  1  0
 23 24  1  0
 24 25  2  0
 25 26  1  0
 26 27  2  0
 27 28  1  0
 28 29  2  0
 10  5  1  0
 20 11  1  0
 29 21  1  0
 19 14  1  0
 29 24  1  0
  4 30  1  0
  4 31  1  0
  6 32  1  0
  7 33  1  0
  8 34  1  0
  9 35  1  0
 10 36  1  0
 12 37  1  0
 13 38  1  0
 15 39  1  0
 16 40  1  0
 17 41  1  0
 18 42  1  0
 20 43  1  1
 22 44  1  0
 23 45  1  0
 25 46  1  0
 26 47  1  0
 27 48  1  0
 28 49  1  0
M  END
>  <meeko>  (19) 
{"free_energy": -6.89, "intermolecular_energy": -8.08, "internal_energy": -2.76, "cluster_size": 3, "cluster_id": 3, "rank_in_cluster": 2}

$$$$

     RDKit          3D

 49 53  0  0  0  0  0  0  0  0999 V2000
  135.5340   69.9450  226.0380 O   0  0  0  0  0  0  0  0  0  0  0  0
  135.3660   69.4800  224.6190 S   0  0  0  0  0  0  0  0  0  0  0  0
  134.6990   68.1330  224.6300 O   0  0  0  0  0  0  0  0  0  0  0  0
  134.3520   70.6430  223.7200 C   0  0  0  0  0  0  0  0  0  0  0  0
  134.8800   72.0380  223.9060 C   0  0  0  0  0  0  0  0  0  0  0  0
  135.7670   72.5910  222.9670 C   0  0  0  0  0  0  0  0  0  0  0  0
  136.1800   73.9220  223.0850 C   0  0  0  0  0  0  0  0  0  0  0  0
  135.7110   74.7080  224.1410 C   0  0  0  0  0  0  0  0  0  0  0  0
  134.8290   74.1660  225.0790 C   0  0  0  0  0  0  0  0  0  0  0  0
  134.4100   72.8370  224.9620 C   0  0  0  0  0  0  0  0  0  0  0  0
  136.9210   69.3660  223.8540 N   0  0  0  0  0  0  0  0  0  0  0  0
  137.0820   68.5000  222.7180 C   0  0  0  0  0  0  0  0  0  0  0  0
  138.0830   68.6840  221.8600 C   0  0  0  0  0  0  0  0  0  0  0  0
  139.0340   69.7910  222.0510 C   0  0  0  0  0  0  0  0  0  0  0  0
  139.9690   70.0980  221.0510 C   0  0  0  0  0  0  0  0  0  0  0  0
  140.8470   71.1710  221.2150 C   0  0  0  0  0  0  0  0  0  0  0  0
  140.7990   71.9430  222.3770 C   0  0  0  0  0  0  0  0  0  0  0  0
  139.8760   71.6430  223.3820 C   0  0  0  0  0  0  0  0  0  0  0  0
  138.9840   70.5690  223.2250 C   0  0  0  0  0  0  0  0  0  0  0  0
  138.0210   70.2160  224.3360 C   0  0  2  0  0  0  0  0  0  0  0  0
  138.7560   69.5150  225.4460 C   0  0  0  0  0  0  0  0  0  0  0  0
  138.7560   68.1460  225.7130 C   0  0  0  0  0  0  0  0  0  0  0  0
  139.5730   67.8660  226.7530 N   0  0  0  0  0  0  0  0  0  0  0  0
  140.0980   69.0410  227.1410 C   0  0  0  0  0  0  0  0  0  0  0  0
  141.0120   69.2570  228.1720 C   0  0  0  0  0  0  0  0  0  0  0  0
  141.4470   70.5750  228.3990 C   0  0  0  0  0  0  0  0  0  0  0  0
  140.9670   71.6350  227.5990 C   0  0  0  0  0  0  0  0  0  0  0  0
  140.0470   71.3880  226.5640 C   0  0  0  0  0  0  0  0  0  0  0  0
  139.6290   70.0700  226.3650 C   0  0  0  0  0  0  0  0  0  0  0  0
  134.3666   70.3878  222.6501 H   0  0  0  0  0  0  0  0  0  0  0  0
  133.3216   70.5935  224.1018 H   0  0  0  0  0  0  0  0  0  0  0  0
  136.1383   71.9743  222.1353 H   0  0  0  0  0  0  0  0  0  0  0  0
  136.8739   74.3501  222.3467 H   0  0  0  0  0  0  0  0  0  0  0  0
  136.0367   75.7546  224.2337 H   0  0  0  0  0  0  0  0  0  0  0  0
  134.4634   74.7857  225.9111 H   0  0  0  0  0  0  0  0  0  0  0  0
  133.7103   72.4158  225.6989 H   0  0  0  0  0  0  0  0  0  0  0  0
  136.3707   67.6767  222.5560 H   0  0  0  0  0  0  0  0  0  0  0  0
  138.2001   68.0045  221.0029 H   0  0  0  0  0  0  0  0  0  0  0  0
  140.0104   69.4911  220.1345 H   0  0  0  0  0  0  0  0  0  0  0  0
  141.5775   71.4084  220.4276 H   0  0  0  0  0  0  0  0  0  0  0  0
  141.4898   72.7899  222.5018 H   0  0  0  0  0  0  0  0  0  0  0  0
  139.8476   72.2496  224.2992 H   0  0  0  0  0  0  0  0  0  0  0  0
  137.5840   71.1531  224.7114 H   0  0  0  0  0  0  0  0  0  0  0  0
  138.1727   67.3986  225.1552 H   0  0  0  0  0  0  0  0  0  0  0  0
  139.7630   66.9240  227.1620 H   0  0  0  0  0  0  0  0  0  0  0  0
  141.3807   68.4234  228.7878 H   0  0  0  0  0  0  0  0  0  0  0  0
  142.1662   70.7816  229.2053 H   0  0  0  0  0  0  0  0  0  0  0  0
  141.3151   72.6615  227.7866 H   0  0  0  0  0  0  0  0  0  0  0  0
  139.6693   72.2055  225.9323 H   0  0  0  0  0  0  0  0  0  0  0  0
  1  2  2  0
  2  3  2  0
  2  4  1  0
  4  5  1  0
  5  6  2  0
  6  7  1  0
  7  8  2  0
  8  9  1  0
  9 10  2  0
  2 11  1  0
 11 12  1  0
 12 13  2  0
 13 14  1  0
 14 15  2  0
 15 16  1  0
 16 17  2  0
 17 18  1  0
 18 19  2  0
 19 20  1  0
 20 21  1  0
 21 22  2  0
 22 23  1  0
 23 24  1  0
 24 25  2  0
 25 26  1  0
 26 27  2  0
 27 28  1  0
 28 29  2  0
 10  5  1  0
 20 11  1  0
 29 21  1  0
 19 14  1  0
 29 24  1  0
  4 30  1  0
  4 31  1  0
  6 32  1  0
  7 33  1  0
  8 34  1  0
  9 35  1  0
 10 36  1  0
 12 37  1  0
 13 38  1  0
 15 39  1  0
 16 40  1  0
 17 41  1  0
 18 42  1  0
 20 43  1  1
 22 44  1  0
 23 45  1  0
 25 46  1  0
 26 47  1  0
 27 48  1  0
 28 49  1  0
M  END
>  <meeko>  (20) 
{"free_energy": -8.01, "intermolecular_energy": -9.2, "internal_energy": -2.19, "cluster_size": 6, "cluster_id": 2, "rank_in_cluster": 5}

$$$$
